<?xml version="1.0" encoding="UTF-8"?>

<!-- generated on 11/23/21 15:26:48 by Eclipse SUMO jtrrouter Version 1.7.0
<configuration xmlns:xsi="http://www.w3.org/2001/XMLSchema-instance" xsi:noNamespaceSchemaLocation="http://sumo.dlr.de/xsd/jtrrouterConfiguration.xsd">

    <input>
        <net-file value="osm.net.xml"/>
        <route-files value="flows.xml"/>
    </input>

    <output>
        <output-file value="osm.rou.xml"/>
    </output>

    <processing>
        <no-internal-links value="true"/>
        <accept-all-destinations value="true"/>
    </processing>

    <time>
        <begin value="0"/>
        <end value="600"/>
    </time>

</configuration>
-->

<routes xmlns:xsi="http://www.w3.org/2001/XMLSchema-instance" xsi:noNamespaceSchemaLocation="http://sumo.dlr.de/xsd/routes_file.xsd">
    <vehicle id="0.0" depart="0.00">
        <route edges="378331052#6 -378331052#6 -378331057 378331069#1 -378331069#1 378331057 -378331044#2 378331051#0 378331077#3 394282841#0 -394282841#0 378331061#2 -378331054 378331054 378331061#3 -378331061#3 -378331061#2 -378331077#3 -378331077#2 -378331077#1 37401829#10 37401829#11 37401829#12 379567126#0 379567126#1 -379567126#1 -379567140 379567140 -379567126#0 700433858#1 700433858#2 -395577217#10 -395577217#9 -395577217#8 -379574235 379574235 -395577217#7 -395577217#6 -395577217#5 -395577217#4 -395577217#3 395577218 -395577218 395577217#3 395577217#4 395577217#5 -379574233 -37400668#4 37400668#4 37400668#5 -37400668#5 379574233 395577217#6 -379574226 379574226 395577217#7 395577217#8 -379574231 37400668#2 37400668#3 -37400668#3 -37400668#2 -37400668#1 379574229 395577217#10 395577217#11 -379567150 379567150 -395577217#11 -700433858#2 37400668#0 37400668#1 379574231 395577217#9 -379574229 -37400668#0 37402625#0 37402625#2 379567162#0 379567162#1 -379567162#1 -379567162#0 37402625#3 -379567147 -379567126#3 -379567126#2 794254764 -37402625#2 -37402625#0 -700433858#1 -700433858#0 -37401829#11 -37401829#10 378331077#1 378331077#2 -416466759 416466759 -378331051#0 -378331044#0 378331044#0 378331044#2 -378331052#4 -378331052#3 378331052#3 -378331041#2 378331041#2 378331052#4"/>
    </vehicle>
    <vehicle id="1.0" depart="0.00">
        <route edges="-379584854#0 -82091418#1 -82091418#0 -183521163#0 218769245#1 218769245#2 416453513#0 416453513#1 540235859#1 416456954 -37401797#3 -702339100 -379555997#2 379555997#2 379555997#3 416456957#0 416456957#1 416456957#2 -702362028 702362028 416456957#3 -779263569 379556000#1 416456957#4 -448204368#2 -448204368#0 -634224224 -183521163#3 -183521163#2 -183521163#1 82091418#0 82091418#1 -416453502#0 416453502#0 416453502#1 -345417589#2 345417589#2 540235859#0 -416453513#1 379584854#1 -379584854#1 -416453513#0 218769245#3 -416453505 -416211543#2 -416453525 416453525 416211543#2 416453510#0 263590716 -263590716 -416453510#0 -379598577#3 379598577#3 416453505 218769245#4 -218769245#4 -218769245#3 -218769245#2 -263590645#1 -263590645#0 263590645#0 -379598577#0 379598577#0 263590645#1 -218769245#1 379598639#0 379598639#1 -345417589#1 -345417589#0 345417589#0 345417589#1 -379598639#1 -379598639#0 -218769245#0 183521163#1 183521163#2 183521163#3 183521163#4 448204368#0 -183521170#3 -183521170#2 -540235860 540235860 -416453503#1 -416456957#1 -416456957#0 -379555997#3 702339100 37401797#3 -416456954 -540235859#1 -540235859#0 -416453502#1 379584854#0"/>
    </vehicle>
    <vehicle id="2.0" depart="0.00">
        <route edges="379574258#3 379574254#0 379574254#1 -379574254#1 379574252#0 -379574252#0 -379574254#0 379574258#4"/>
    </vehicle>
    <vehicle id="3.0" depart="0.00">
        <route edges="416456942#3 379555998#1 416456940#1 379556015#3 416455208 379578138#7 629928365#0 379581065 416455014 227625253#0 416456948 -416456948 227625253#1 379581081 416456949 -416455209 -416456940#1 -379555998#1 -379555998#0 379555998#0 416456942#4 379556015#2 -379556015#2 416456942#5 416455210#1 393310533#0 393310533#1 393310533#2 393310533#3 393310533#4 -393310533#4 -393310533#3 -379555974#2 379555987 -379555987 379555974#2 -393310533#2 -393310533#1 -393310533#0 393310531#0 -393310531#0 -416455210#1 -227626347#4 -227626347#3 -227626347#2 227625255#1 227625255#2 416456940#0 -416456940#0 -227625254#1 -379556012#0 379556012#0 379556012#1 379556012#2 -227626347#0 227626347#0 -379556012#2 -416456942#1 183521126#6 183521126#7 183895333#1 518705248#0 518705248#1 183895332#1 -393310531#3 -393310531#2 393310531#2 393310531#3 183895344#0 183895344#1 394382781#1 -394382781#1 183895344#2 183895344#3 378331050#2 -378331050#2 -378331050#0 37396910#3 37396910#4 37396910#5 -183895343 -392752139 392752139 183895343"/>
    </vehicle>
    <vehicle id="4.0" depart="0.00">
        <route edges="-469144897#2 469144897#2 469144897#4 469144897#5 379555978#0 -379555978#0 218769245#6 -379584851#1 -416453515#2 -416453515#1 416453515#1 379555978#1 -379584859#1 -379584859#0 -416453512#0 -540235859#1 540235859#1 416456954 -416456955#3 -379555997#3 379555997#3 416456957#0 416456957#1 -416456957#1 -416456957#0 416456955#3 183521170#0 379555995 -379555995 183521170#1 183521170#2 183521170#3 -448204368#0 -634224224 -183521163#3 183521163#3 183521163#4 448204368#0 -183521170#3 702362028 702362027 -379555977#1 448204368#5 379555983#1 379556022#1 379556022#2 -379556021#0 -379555977#2 379556022#0 -379556022#0 -702362027 -416456957#2 416456957#2 416456957#3 -416456957#3 -702362028 -183521170#2 -183521170#1 -183521170#0 -37401797#3 -37401797#2 -37401797#1 -37401797#0 -183521125 183521125 37401797#0 37401797#1 -416456953 416456953 37401797#2 37401797#3 -416456954 -416453508#1 -416453508#0 416453508#0 -379584854#1 -379584854#0 -416453502#0 -218769245#1 -218769245#0 82091418#0 -379598639#0 379598639#0 -82091418#0 183521163#1 183521163#2 -183521163#2 -183521163#1 -183521163#0 218769245#1 416453502#0 -82091418#1 379598639#1 345417589#2 540235860 -540235860 -416453502#1 379584854#0 379584854#1 416453508#1 416453512#0 -416453507#1 -416453507#0 218769245#5 -218769245#5 416453507#0 416453507#1 416453512#1 379584859#1 379584859#3 379584851#0 416453515#3 -913942996 -218769245#7 -218769245#6 -469144897#5 -416453510#2 416453510#2 -469144897#4 469147007 -469147007 379598629 -779263572"/>
    </vehicle>
    <vehicle id="5.0" depart="0.00">
        <route edges="-379567140 379567140 -379567126#0 700433858#1 700433858#2 -700433858#2 37400668#0 379574229 395577217#10 -395577217#10 -395577217#9 395577217#9 -379574229 -37400668#0 37402625#0 37402625#2 37402625#3 -37402625#3 -794254764 379567126#2 379567126#3 379567126#4 379567126#5 -379567126#5 -379567126#4 379567147 37402625#4 -37402625#4 -379567147 -379567126#3 -379567126#2 -379567126#1 379567126#1 794254764 -37402625#2 -37402625#0 -700433858#1 -700433858#0 -379578139#6 -379578139#5 379578139#5 379578139#6 37401829#12 379567126#0"/>
    </vehicle>
    <vehicle id="6.0" depart="0.00">
        <route edges="-183521165#0 183521166#0 -379603743 379603826#3 -26269734#1 26269734#1 26269734#2 -379603755 379603809#1 -379603809#1 379603755 -26269734#2"/>
    </vehicle>
    <vehicle id="7.0" depart="0.00">
        <route edges="378331061#2 378331061#3 -378331061#3 -378331061#2 394282841#0 -394282841#0 -378331061#1 378331061#1 -378331077#3 -378331077#2 378331077#2 -378331051#0 378331051#0 -416466759 -378331043#5 378331043#5 378331041#2 378331052#4 -378331057 378331057 378331052#6 416466758 378331060#3 -378331060#3 -416466758 -378331040#2 -378331040#1 -183895331#5 183895331#5 378331040#1 378331040#2 416466757 -378331060#1 -183895331#3 -183895331#2 183895331#2 378331076#1 779467169 -378331046#4 -378331046#3 378331067#0 378331075#1 793763774#0 793763774#1 37401829#3 37401829#5 -37401829#5 -37401829#3 393642755#0 393642755#1 393642755#2 393642755#4 393642755#5 393642755#6 379578137#0 379556016#0 -379556016#0 -379578137#0 393642755#7 -393642755#7 -393642755#6 -393642755#5 -393642755#4 -393642755#2 -393642755#1 -393642755#0 -37401829#1 183895339#4 183895339#5 183895331#0 26600610#1 -378331046#1 394382781#1 -394382781#1 378331046#1 378331046#2 378331046#3 -702362023#4 -378331076#1 183895331#3 183895331#4 -172672023#3 -172672023#2 -954536931#1 -954536931#0 954536931#0 -954536932 337111083 954536931#1 -954536930 954536929#1 -518705249#5 -518705249#4 -518705249#3 337111080#0 337111080#1 337111081#0 -378331073#1 378331073#1 337111081#1 337111081#2 -337111081#2 -337111081#1 -337111081#0 337111082#0 -337111082#0 337111080#2 702362021 378331078#0 378331078#1 378331064 -702362023#0 -378331078#0 -702362021 337111080#3 378331050#5 -378331050#5 337111080#4 -779467169 -702362023#3 702362023#3 702362023#4 378331046#4 393642751#0 393642751#1 -393642751#1 378331073#0 -378331073#0 -393642751#0"/>
    </vehicle>
    <vehicle id="8.0" depart="0.00">
        <route edges="-379567150 379567150 -395577217#11 -700433858#2 37402625#0 -37402625#0 -700433858#1 379567126#0 379567126#1 379567126#2 379567126#3 379567126#4 379567126#5 -379567126#5 -379567126#4 379567147 -379567147 -379567126#3 -379567126#2 794254764 -37402625#2 379567140 -379567140 37402625#2 37402625#3 -37402625#3 379567162#0 -379567162#0 -794254764 -379567126#1 -379567126#0 700433858#1 37400668#0 379574229 395577217#10 700433858#3 -700433858#3 -395577217#10 -395577217#9 395577217#9 -379574229 -37400668#0 700433858#2 395577217#11 395577217#12 -395577217#12"/>
    </vehicle>
    <vehicle id="9.0" depart="0.00">
        <route edges="379603826#0 379603826#1 379603826#2 379603743 -379603806#1 -379603806#0 26268518#3 -183521082#2 -379603783 379603783 379603819 -379603819 183521082#2 26268518#4 26268518#5 26268518#6 -26268518#6 -379603831#4 379603831#4 -26268518#5 -26268518#4 -26268518#3 -26268518#2 26268518#2 379603806#0 379603806#1 183521166#1 379603809#0 379603809#1 -379603809#1 379603755 26269734#3 -26269734#3 -379603755 -379603809#0 183521166#2 -379603826#3 -379603826#2 -379603826#1 -416461494#9 -416461494#8 416461494#8 416461494#9 -379603826#0 -518705250#0 -183521170#3 -183521170#2 -416453503#1 416453503#1 -183521170#1 379555995 416456957#1 416456957#2 416456957#3 -779263569 379556000#1 -416456957#3 -416456957#2 -416453503#0 379556021#0 379556021#2 26268518#1 -26268518#1 -448204368#8 -448204368#7 379555989#1 379556022#2 416457253 -416457252 -379556014#1 518705243#1 -518705243#1 379556014#1 -416457251#1 -416457253 -379556022#2 -379556022#1 379556022#1 -379555989#1 -448204368#6 448204368#6 448204368#7 448204368#8 518705243#0 -518705243#0 -379556021#2 -379556021#0 -379555977#2 379556022#0 -379556022#0 379555977#2 379555977#3 416456956#0 416456956#1 416456956#2 416456956#3 416456956#4 -416456952#1 -379555997#1 -379556002 379556002 379555997#1 379555997#2 379555997#3 416456955#3 -416456954 -416453508#1 -379584854#1 -379584854#0 416453502#1 540235860 -540235860 540235859#0 540235859#1 416453512#0 416453512#1 -379584859#0 -416453507#1 -416453507#0 -263590716 416453506#0 416453509#1 416453509#2 469144897#2 379598629 -416206251#2 379598648 416206251#1 -416206251#1 -416206251#0 416206251#0 -379598648 416206251#2 416206251#4 -469144897#1 -469147011#1 -469147011#0 469147011#0 469147011#1 469144897#1 -416206251#4 -779263572 -469144897#2"/>
    </vehicle>
</routes>
