<?xml version="1.0" encoding="UTF-8"?>
<!-- generated on 2021-11-23 15:26:49.061310 by generateContinuousRerouters.py v1_7_0+0000-714814baed
  options: -n osm.net.xml <doubleminus>end 600 -o rerouter.add.xml
-->
<additional xmlns:xsi="http://www.w3.org/2001/XMLSchema-instance" xsi:noNamespaceSchemaLocation="http://sumo.dlr.de/xsd/additional_file.xsd">
    <route id="-172670186#1_-172670186#0" edges="-172670186#1 -172670186#0"/>
    <route id="-172670186#1_172670186#1" edges="-172670186#1 172670186#1"/>
    <route id="-172670186#1_337111075#0" edges="-172670186#1 337111075#0"/>
    <rerouter id="rr_-172670186#1" edges="-172670186#1">
        <interval begin="0" end="600">
            <routeProbReroute id="-172670186#1_-172670186#0" probability="50.0"/>
            <routeProbReroute id="-172670186#1_172670186#1" probability="0"/>
            <routeProbReroute id="-172670186#1_337111075#0" probability="20.0"/>
        </interval>
    </rerouter>
    <route id="-337111075#0_-172670186#0" edges="-337111075#0 -172670186#0"/>
    <route id="-337111075#0_172670186#1" edges="-337111075#0 172670186#1"/>
    <route id="-337111075#0_337111075#0" edges="-337111075#0 337111075#0"/>
    <rerouter id="rr_-337111075#0" edges="-337111075#0">
        <interval begin="0" end="600">
            <routeProbReroute id="-337111075#0_-172670186#0" probability="20.0"/>
            <routeProbReroute id="-337111075#0_172670186#1" probability="30.0"/>
            <routeProbReroute id="-337111075#0_337111075#0" probability="0"/>
        </interval>
    </rerouter>
    <route id="332080693_-172670186#0" edges="332080693 -172670186#0"/>
    <route id="332080693_172670186#1" edges="332080693 172670186#1"/>
    <route id="332080693_337111075#0" edges="332080693 337111075#0"/>
    <rerouter id="rr_332080693" edges="332080693">
        <interval begin="0" end="600">
            <routeProbReroute id="332080693_-172670186#0" probability="0"/>
            <routeProbReroute id="332080693_172670186#1" probability="50.0"/>
            <routeProbReroute id="332080693_337111075#0" probability="30.0"/>
        </interval>
    </rerouter>
    <route id="-172670186#0_332080693" edges="-172670186#0 332080693"/>
    <route id="-172670186#0_337111068" edges="-172670186#0 337111068 -337111068"/>
    <rerouter id="rr_-172670186#0" edges="-172670186#0">
        <interval begin="0" end="600">
            <routeProbReroute id="-172670186#0_332080693" probability="0"/>
            <routeProbReroute id="-172670186#0_337111068" probability="20.0"/>
        </interval>
    </rerouter>
    <route id="-337111068_332080693" edges="-337111068 332080693"/>
    <route id="-337111068_337111068" edges="-337111068 337111068 -337111068"/>
    <rerouter id="rr_-337111068" edges="-337111068">
        <interval begin="0" end="600">
            <routeProbReroute id="-337111068_332080693" probability="30.0"/>
            <routeProbReroute id="-337111068_337111068" probability="0"/>
        </interval>
    </rerouter>
    <route id="-172670186#3_-172670186#1" edges="-172670186#3 -172670186#1"/>
    <route id="-172670186#3_-337111067" edges="-172670186#3 -337111067"/>
    <route id="-172670186#3_172670186#3" edges="-172670186#3 172670186#3"/>
    <route id="-172670186#3_337111076" edges="-172670186#3 337111076"/>
    <rerouter id="rr_-172670186#3" edges="-172670186#3">
        <interval begin="0" end="600">
            <routeProbReroute id="-172670186#3_-172670186#1" probability="50.0"/>
            <routeProbReroute id="-172670186#3_-337111067" probability="30.0"/>
            <routeProbReroute id="-172670186#3_172670186#3" probability="0"/>
            <routeProbReroute id="-172670186#3_337111076" probability="20.0"/>
        </interval>
    </rerouter>
    <route id="-337111076_-172670186#1" edges="-337111076 -172670186#1"/>
    <route id="-337111076_-337111067" edges="-337111076 -337111067"/>
    <route id="-337111076_172670186#3" edges="-337111076 172670186#3"/>
    <route id="-337111076_337111076" edges="-337111076 337111076"/>
    <rerouter id="rr_-337111076" edges="-337111076">
        <interval begin="0" end="600">
            <routeProbReroute id="-337111076_-172670186#1" probability="20.0"/>
            <routeProbReroute id="-337111076_-337111067" probability="50.0"/>
            <routeProbReroute id="-337111076_172670186#3" probability="30.0"/>
            <routeProbReroute id="-337111076_337111076" probability="0"/>
        </interval>
    </rerouter>
    <route id="172670186#1_-172670186#1" edges="172670186#1 -172670186#1"/>
    <route id="172670186#1_-337111067" edges="172670186#1 -337111067"/>
    <route id="172670186#1_172670186#3" edges="172670186#1 172670186#3"/>
    <route id="172670186#1_337111076" edges="172670186#1 337111076"/>
    <rerouter id="rr_172670186#1" edges="172670186#1">
        <interval begin="0" end="600">
            <routeProbReroute id="172670186#1_-172670186#1" probability="0"/>
            <routeProbReroute id="172670186#1_-337111067" probability="20.0"/>
            <routeProbReroute id="172670186#1_172670186#3" probability="50.0"/>
            <routeProbReroute id="172670186#1_337111076" probability="30.0"/>
        </interval>
    </rerouter>
    <route id="337111067_-172670186#1" edges="337111067 -172670186#1"/>
    <route id="337111067_-337111067" edges="337111067 -337111067"/>
    <route id="337111067_172670186#3" edges="337111067 172670186#3"/>
    <route id="337111067_337111076" edges="337111067 337111076"/>
    <rerouter id="rr_337111067" edges="337111067">
        <interval begin="0" end="600">
            <routeProbReroute id="337111067_-172670186#1" probability="30.0"/>
            <routeProbReroute id="337111067_-337111067" probability="0"/>
            <routeProbReroute id="337111067_172670186#3" probability="20.0"/>
            <routeProbReroute id="337111067_337111076" probability="50.0"/>
        </interval>
    </rerouter>
    <route id="-172670186#4_-172670186#3" edges="-172670186#4 -172670186#3"/>
    <route id="-172670186#4_-337111077#0" edges="-172670186#4 -337111077#0"/>
    <route id="-172670186#4_172670186#4" edges="-172670186#4 172670186#4"/>
    <route id="-172670186#4_337111077#3" edges="-172670186#4 337111077#3"/>
    <rerouter id="rr_-172670186#4" edges="-172670186#4">
        <interval begin="0" end="600">
            <routeProbReroute id="-172670186#4_-172670186#3" probability="50.0"/>
            <routeProbReroute id="-172670186#4_-337111077#0" probability="30.0"/>
            <routeProbReroute id="-172670186#4_172670186#4" probability="0"/>
            <routeProbReroute id="-172670186#4_337111077#3" probability="20.0"/>
        </interval>
    </rerouter>
    <route id="-337111077#3_-172670186#3" edges="-337111077#3 -172670186#3"/>
    <route id="-337111077#3_-337111077#0" edges="-337111077#3 -337111077#0"/>
    <route id="-337111077#3_172670186#4" edges="-337111077#3 172670186#4"/>
    <route id="-337111077#3_337111077#3" edges="-337111077#3 337111077#3"/>
    <rerouter id="rr_-337111077#3" edges="-337111077#3">
        <interval begin="0" end="600">
            <routeProbReroute id="-337111077#3_-172670186#3" probability="20.0"/>
            <routeProbReroute id="-337111077#3_-337111077#0" probability="50.0"/>
            <routeProbReroute id="-337111077#3_172670186#4" probability="30.0"/>
            <routeProbReroute id="-337111077#3_337111077#3" probability="0"/>
        </interval>
    </rerouter>
    <route id="172670186#3_-172670186#3" edges="172670186#3 -172670186#3"/>
    <route id="172670186#3_-337111077#0" edges="172670186#3 -337111077#0"/>
    <route id="172670186#3_172670186#4" edges="172670186#3 172670186#4"/>
    <route id="172670186#3_337111077#3" edges="172670186#3 337111077#3"/>
    <rerouter id="rr_172670186#3" edges="172670186#3">
        <interval begin="0" end="600">
            <routeProbReroute id="172670186#3_-172670186#3" probability="0"/>
            <routeProbReroute id="172670186#3_-337111077#0" probability="20.0"/>
            <routeProbReroute id="172670186#3_172670186#4" probability="50.0"/>
            <routeProbReroute id="172670186#3_337111077#3" probability="30.0"/>
        </interval>
    </rerouter>
    <route id="337111077#0_-172670186#3" edges="337111077#0 -172670186#3"/>
    <route id="337111077#0_-337111077#0" edges="337111077#0 -337111077#0"/>
    <route id="337111077#0_172670186#4" edges="337111077#0 172670186#4"/>
    <route id="337111077#0_337111077#3" edges="337111077#0 337111077#3"/>
    <rerouter id="rr_337111077#0" edges="337111077#0">
        <interval begin="0" end="600">
            <routeProbReroute id="337111077#0_-172670186#3" probability="30.0"/>
            <routeProbReroute id="337111077#0_-337111077#0" probability="0"/>
            <routeProbReroute id="337111077#0_172670186#4" probability="20.0"/>
            <routeProbReroute id="337111077#0_337111077#3" probability="50.0"/>
        </interval>
    </rerouter>
    <route id="-172670186#5_-172670186#4" edges="-172670186#5 -172670186#4"/>
    <route id="-172670186#5_172670186#5" edges="-172670186#5 172670186#5"/>
    <route id="-172670186#5_337111078#1" edges="-172670186#5 337111078#1"/>
    <rerouter id="rr_-172670186#5" edges="-172670186#5">
        <interval begin="0" end="600">
            <routeProbReroute id="-172670186#5_-172670186#4" probability="50.0"/>
            <routeProbReroute id="-172670186#5_172670186#5" probability="0"/>
            <routeProbReroute id="-172670186#5_337111078#1" probability="20.0"/>
        </interval>
    </rerouter>
    <route id="-337111078#1_-172670186#4" edges="-337111078#1 -172670186#4"/>
    <route id="-337111078#1_172670186#5" edges="-337111078#1 172670186#5"/>
    <route id="-337111078#1_337111078#1" edges="-337111078#1 337111078#1"/>
    <rerouter id="rr_-337111078#1" edges="-337111078#1">
        <interval begin="0" end="600">
            <routeProbReroute id="-337111078#1_-172670186#4" probability="20.0"/>
            <routeProbReroute id="-337111078#1_172670186#5" probability="30.0"/>
            <routeProbReroute id="-337111078#1_337111078#1" probability="0"/>
        </interval>
    </rerouter>
    <route id="172670186#4_-172670186#4" edges="172670186#4 -172670186#4"/>
    <route id="172670186#4_172670186#5" edges="172670186#4 172670186#5"/>
    <route id="172670186#4_337111078#1" edges="172670186#4 337111078#1"/>
    <rerouter id="rr_172670186#4" edges="172670186#4">
        <interval begin="0" end="600">
            <routeProbReroute id="172670186#4_-172670186#4" probability="0"/>
            <routeProbReroute id="172670186#4_172670186#5" probability="50.0"/>
            <routeProbReroute id="172670186#4_337111078#1" probability="30.0"/>
        </interval>
    </rerouter>
    <route id="-172670186#6_-172670186#5" edges="-172670186#6 -172670186#5"/>
    <route id="-172670186#6_172670186#6" edges="-172670186#6 172670186#6"/>
    <rerouter id="rr_-172670186#6" edges="-172670186#6">
        <interval begin="0" end="600">
            <routeProbReroute id="-172670186#6_-172670186#5" probability="50.0"/>
            <routeProbReroute id="-172670186#6_172670186#6" probability="0"/>
        </interval>
    </rerouter>
    <route id="172670186#5_-172670186#5" edges="172670186#5 -172670186#5"/>
    <route id="172670186#5_172670186#6" edges="172670186#5 172670186#6"/>
    <rerouter id="rr_172670186#5" edges="172670186#5">
        <interval begin="0" end="600">
            <routeProbReroute id="172670186#5_-172670186#5" probability="0"/>
            <routeProbReroute id="172670186#5_172670186#6" probability="50.0"/>
        </interval>
    </rerouter>
    <route id="-518705249#1_-172670186#6" edges="-518705249#1 -172670186#6"/>
    <route id="-518705249#1_-518705243#8" edges="-518705249#1 -518705243#8"/>
    <route id="-518705249#1_518705249#0" edges="-518705249#1 518705249#0"/>
    <rerouter id="rr_-518705249#1" edges="-518705249#1">
        <interval begin="0" end="600">
            <routeProbReroute id="-518705249#1_-172670186#6" probability="30.0"/>
            <routeProbReroute id="-518705249#1_-518705243#8" probability="50.0"/>
            <routeProbReroute id="-518705249#1_518705249#0" probability="0"/>
        </interval>
    </rerouter>
    <route id="172670186#6_-172670186#6" edges="172670186#6 -172670186#6"/>
    <route id="172670186#6_-518705243#8" edges="172670186#6 -518705243#8"/>
    <route id="172670186#6_518705249#0" edges="172670186#6 518705249#0"/>
    <rerouter id="rr_172670186#6" edges="172670186#6">
        <interval begin="0" end="600">
            <routeProbReroute id="172670186#6_-172670186#6" probability="0"/>
            <routeProbReroute id="172670186#6_-518705243#8" probability="30.0"/>
            <routeProbReroute id="172670186#6_518705249#0" probability="20.0"/>
        </interval>
    </rerouter>
    <route id="183895344#6_-172670186#6" edges="183895344#6 -172670186#6"/>
    <route id="183895344#6_-518705243#8" edges="183895344#6 -518705243#8"/>
    <route id="183895344#6_518705249#0" edges="183895344#6 518705249#0"/>
    <rerouter id="rr_183895344#6" edges="183895344#6">
        <interval begin="0" end="600">
            <routeProbReroute id="183895344#6_-172670186#6" probability="50.0"/>
            <routeProbReroute id="183895344#6_-518705243#8" probability="20.0"/>
            <routeProbReroute id="183895344#6_518705249#0" probability="30.0"/>
        </interval>
    </rerouter>
    <route id="518705243#8_-172670186#6" edges="518705243#8 -172670186#6"/>
    <route id="518705243#8_-518705243#8" edges="518705243#8 -518705243#8"/>
    <route id="518705243#8_518705249#0" edges="518705243#8 518705249#0"/>
    <rerouter id="rr_518705243#8" edges="518705243#8">
        <interval begin="0" end="600">
            <routeProbReroute id="518705243#8_-172670186#6" probability="20.0"/>
            <routeProbReroute id="518705243#8_-518705243#8" probability="0"/>
            <routeProbReroute id="518705243#8_518705249#0" probability="50.0"/>
        </interval>
    </rerouter>
    <route id="-172672023#1_-172672023#0" edges="-172672023#1 -172672023#0"/>
    <route id="-172672023#1_172672023#1" edges="-172672023#1 172672023#1"/>
    <rerouter id="rr_-172672023#1" edges="-172672023#1">
        <interval begin="0" end="600">
            <routeProbReroute id="-172672023#1_-172672023#0" probability="50.0"/>
            <routeProbReroute id="-172672023#1_172672023#1" probability="0"/>
        </interval>
    </rerouter>
    <route id="172672023#0_-172672023#0" edges="172672023#0 -172672023#0"/>
    <route id="172672023#0_172672023#1" edges="172672023#0 172672023#1"/>
    <rerouter id="rr_172672023#0" edges="172672023#0">
        <interval begin="0" end="600">
            <routeProbReroute id="172672023#0_-172672023#0" probability="0"/>
            <routeProbReroute id="172672023#0_172672023#1" probability="50.0"/>
        </interval>
    </rerouter>
    <route id="-172672023#0_-518705249#3" edges="-172672023#0 -518705249#3"/>
    <route id="-172672023#0_172672023#0" edges="-172672023#0 172672023#0"/>
    <route id="-172672023#0_332080691#0" edges="-172672023#0 332080691#0"/>
    <route id="-172672023#0_518705249#4" edges="-172672023#0 518705249#4"/>
    <rerouter id="rr_-172672023#0" edges="-172672023#0">
        <interval begin="0" end="600">
            <routeProbReroute id="-172672023#0_-518705249#3" probability="20.0"/>
            <routeProbReroute id="-172672023#0_172672023#0" probability="0"/>
            <routeProbReroute id="-172672023#0_332080691#0" probability="50.0"/>
            <routeProbReroute id="-172672023#0_518705249#4" probability="30.0"/>
        </interval>
    </rerouter>
    <route id="-332080691#0_-518705249#3" edges="-332080691#0 -518705249#3"/>
    <route id="-332080691#0_172672023#0" edges="-332080691#0 172672023#0"/>
    <route id="-332080691#0_332080691#0" edges="-332080691#0 332080691#0"/>
    <route id="-332080691#0_518705249#4" edges="-332080691#0 518705249#4"/>
    <rerouter id="rr_-332080691#0" edges="-332080691#0">
        <interval begin="0" end="600">
            <routeProbReroute id="-332080691#0_-518705249#3" probability="30.0"/>
            <routeProbReroute id="-332080691#0_172672023#0" probability="50.0"/>
            <routeProbReroute id="-332080691#0_332080691#0" probability="0"/>
            <routeProbReroute id="-332080691#0_518705249#4" probability="20.0"/>
        </interval>
    </rerouter>
    <route id="-518705249#4_-518705249#3" edges="-518705249#4 -518705249#3"/>
    <route id="-518705249#4_172672023#0" edges="-518705249#4 172672023#0"/>
    <route id="-518705249#4_332080691#0" edges="-518705249#4 332080691#0"/>
    <route id="-518705249#4_518705249#4" edges="-518705249#4 518705249#4"/>
    <rerouter id="rr_-518705249#4" edges="-518705249#4">
        <interval begin="0" end="600">
            <routeProbReroute id="-518705249#4_-518705249#3" probability="50.0"/>
            <routeProbReroute id="-518705249#4_172672023#0" probability="20.0"/>
            <routeProbReroute id="-518705249#4_332080691#0" probability="30.0"/>
            <routeProbReroute id="-518705249#4_518705249#4" probability="0"/>
        </interval>
    </rerouter>
    <route id="518705249#3_-518705249#3" edges="518705249#3 -518705249#3"/>
    <route id="518705249#3_172672023#0" edges="518705249#3 172672023#0"/>
    <route id="518705249#3_332080691#0" edges="518705249#3 332080691#0"/>
    <route id="518705249#3_518705249#4" edges="518705249#3 518705249#4"/>
    <rerouter id="rr_518705249#3" edges="518705249#3">
        <interval begin="0" end="600">
            <routeProbReroute id="518705249#3_-518705249#3" probability="0"/>
            <routeProbReroute id="518705249#3_172672023#0" probability="30.0"/>
            <routeProbReroute id="518705249#3_332080691#0" probability="20.0"/>
            <routeProbReroute id="518705249#3_518705249#4" probability="50.0"/>
        </interval>
    </rerouter>
    <route id="-172672023#2_-172672023#1" edges="-172672023#2 -172672023#1"/>
    <route id="-172672023#2_-954536930" edges="-172672023#2 -954536930"/>
    <route id="-172672023#2_-954536931#1" edges="-172672023#2 -954536931#1"/>
    <route id="-172672023#2_172672023#2" edges="-172672023#2 172672023#2"/>
    <rerouter id="rr_-172672023#2" edges="-172672023#2">
        <interval begin="0" end="600">
            <routeProbReroute id="-172672023#2_-172672023#1" probability="50.0"/>
            <routeProbReroute id="-172672023#2_-954536930" probability="30.0"/>
            <routeProbReroute id="-172672023#2_-954536931#1" probability="20.0"/>
            <routeProbReroute id="-172672023#2_172672023#2" probability="0"/>
        </interval>
    </rerouter>
    <route id="172672023#1_-172672023#1" edges="172672023#1 -172672023#1"/>
    <route id="172672023#1_-954536930" edges="172672023#1 -954536930"/>
    <route id="172672023#1_-954536931#1" edges="172672023#1 -954536931#1"/>
    <route id="172672023#1_172672023#2" edges="172672023#1 172672023#2"/>
    <rerouter id="rr_172672023#1" edges="172672023#1">
        <interval begin="0" end="600">
            <routeProbReroute id="172672023#1_-172672023#1" probability="0"/>
            <routeProbReroute id="172672023#1_-954536930" probability="20.0"/>
            <routeProbReroute id="172672023#1_-954536931#1" probability="30.0"/>
            <routeProbReroute id="172672023#1_172672023#2" probability="50.0"/>
        </interval>
    </rerouter>
    <route id="954536930_-172672023#1" edges="954536930 -172672023#1"/>
    <route id="954536930_-954536930" edges="954536930 -954536930"/>
    <route id="954536930_-954536931#1" edges="954536930 -954536931#1"/>
    <route id="954536930_172672023#2" edges="954536930 172672023#2"/>
    <rerouter id="rr_954536930" edges="954536930">
        <interval begin="0" end="600">
            <routeProbReroute id="954536930_-172672023#1" probability="30.0"/>
            <routeProbReroute id="954536930_-954536930" probability="0"/>
            <routeProbReroute id="954536930_-954536931#1" probability="50.0"/>
            <routeProbReroute id="954536930_172672023#2" probability="20.0"/>
        </interval>
    </rerouter>
    <route id="954536931#1_-172672023#1" edges="954536931#1 -172672023#1"/>
    <route id="954536931#1_-954536930" edges="954536931#1 -954536930"/>
    <route id="954536931#1_-954536931#1" edges="954536931#1 -954536931#1"/>
    <route id="954536931#1_172672023#2" edges="954536931#1 172672023#2"/>
    <rerouter id="rr_954536931#1" edges="954536931#1">
        <interval begin="0" end="600">
            <routeProbReroute id="954536931#1_-172672023#1" probability="20.0"/>
            <routeProbReroute id="954536931#1_-954536930" probability="50.0"/>
            <routeProbReroute id="954536931#1_-954536931#1" probability="0"/>
            <routeProbReroute id="954536931#1_172672023#2" probability="30.0"/>
        </interval>
    </rerouter>
    <route id="-172672023#3_-172672023#2" edges="-172672023#3 -172672023#2"/>
    <route id="-172672023#3_172672023#3" edges="-172672023#3 172672023#3"/>
    <rerouter id="rr_-172672023#3" edges="-172672023#3">
        <interval begin="0" end="600">
            <routeProbReroute id="-172672023#3_-172672023#2" probability="50.0"/>
            <routeProbReroute id="-172672023#3_172672023#3" probability="0"/>
        </interval>
    </rerouter>
    <route id="172672023#2_-172672023#2" edges="172672023#2 -172672023#2"/>
    <route id="172672023#2_172672023#3" edges="172672023#2 172672023#3"/>
    <rerouter id="rr_172672023#2" edges="172672023#2">
        <interval begin="0" end="600">
            <routeProbReroute id="172672023#2_-172672023#2" probability="0"/>
            <routeProbReroute id="172672023#2_172672023#3" probability="50.0"/>
        </interval>
    </rerouter>
    <route id="-183895331#5_-172672023#3" edges="-183895331#5 -172672023#3"/>
    <route id="-183895331#5_-183895331#4" edges="-183895331#5 -183895331#4"/>
    <route id="-183895331#5_183895331#5" edges="-183895331#5 183895331#5"/>
    <rerouter id="rr_-183895331#5" edges="-183895331#5">
        <interval begin="0" end="600">
            <routeProbReroute id="-183895331#5_-172672023#3" probability="30.0"/>
            <routeProbReroute id="-183895331#5_-183895331#4" probability="50.0"/>
            <routeProbReroute id="-183895331#5_183895331#5" probability="0"/>
        </interval>
    </rerouter>
    <route id="172672023#3_-172672023#3" edges="172672023#3 -172672023#3"/>
    <route id="172672023#3_-183895331#4" edges="172672023#3 -183895331#4"/>
    <route id="172672023#3_183895331#5" edges="172672023#3 183895331#5"/>
    <rerouter id="rr_172672023#3" edges="172672023#3">
        <interval begin="0" end="600">
            <routeProbReroute id="172672023#3_-172672023#3" probability="0"/>
            <routeProbReroute id="172672023#3_-183895331#4" probability="30.0"/>
            <routeProbReroute id="172672023#3_183895331#5" probability="20.0"/>
        </interval>
    </rerouter>
    <route id="183895331#4_-172672023#3" edges="183895331#4 -172672023#3"/>
    <route id="183895331#4_-183895331#4" edges="183895331#4 -183895331#4"/>
    <route id="183895331#4_183895331#5" edges="183895331#4 183895331#5"/>
    <rerouter id="rr_183895331#4" edges="183895331#4">
        <interval begin="0" end="600">
            <routeProbReroute id="183895331#4_-172672023#3" probability="20.0"/>
            <routeProbReroute id="183895331#4_-183895331#4" probability="0"/>
            <routeProbReroute id="183895331#4_183895331#5" probability="50.0"/>
        </interval>
    </rerouter>
    <route id="-183061374#1_-183061374#0" edges="-183061374#1 -183061374#0"/>
    <route id="-183061374#1_-183062753" edges="-183061374#1 -183062753 183062753"/>
    <route id="-183061374#1_183061374#1" edges="-183061374#1 183061374#1"/>
    <rerouter id="rr_-183061374#1" edges="-183061374#1">
        <interval begin="0" end="600">
            <routeProbReroute id="-183061374#1_-183061374#0" probability="50.0"/>
            <routeProbReroute id="-183061374#1_-183062753" probability="20.0"/>
            <routeProbReroute id="-183061374#1_183061374#1" probability="0"/>
        </interval>
    </rerouter>
    <route id="183061374#0_-183061374#0" edges="183061374#0 -183061374#0"/>
    <route id="183061374#0_-183062753" edges="183061374#0 -183062753 183062753"/>
    <route id="183061374#0_183061374#1" edges="183061374#0 183061374#1"/>
    <rerouter id="rr_183061374#0" edges="183061374#0">
        <interval begin="0" end="600">
            <routeProbReroute id="183061374#0_-183061374#0" probability="0"/>
            <routeProbReroute id="183061374#0_-183062753" probability="30.0"/>
            <routeProbReroute id="183061374#0_183061374#1" probability="50.0"/>
        </interval>
    </rerouter>
    <route id="183062753_-183061374#0" edges="183062753 -183061374#0"/>
    <route id="183062753_-183062753" edges="183062753 -183062753 183062753"/>
    <route id="183062753_183061374#1" edges="183062753 183061374#1"/>
    <rerouter id="rr_183062753" edges="183062753">
        <interval begin="0" end="600">
            <routeProbReroute id="183062753_-183061374#0" probability="20.0"/>
            <routeProbReroute id="183062753_-183062753" probability="0"/>
            <routeProbReroute id="183062753_183061374#1" probability="30.0"/>
        </interval>
    </rerouter>
    <route id="-183061374#0_-378331049#0" edges="-183061374#0 -378331049#0 378331049#0"/>
    <route id="-183061374#0_183061374#0" edges="-183061374#0 183061374#0"/>
    <route id="-183061374#0_378331049#1" edges="-183061374#0 378331049#1"/>
    <rerouter id="rr_-183061374#0" edges="-183061374#0">
        <interval begin="0" end="600">
            <routeProbReroute id="-183061374#0_-378331049#0" probability="20.0"/>
            <routeProbReroute id="-183061374#0_183061374#0" probability="0"/>
            <routeProbReroute id="-183061374#0_378331049#1" probability="30.0"/>
        </interval>
    </rerouter>
    <route id="-378331049#1_-378331049#0" edges="-378331049#1 -378331049#0 378331049#0"/>
    <route id="-378331049#1_183061374#0" edges="-378331049#1 183061374#0"/>
    <route id="-378331049#1_378331049#1" edges="-378331049#1 378331049#1"/>
    <rerouter id="rr_-378331049#1" edges="-378331049#1">
        <interval begin="0" end="600">
            <routeProbReroute id="-378331049#1_-378331049#0" probability="50.0"/>
            <routeProbReroute id="-378331049#1_183061374#0" probability="20.0"/>
            <routeProbReroute id="-378331049#1_378331049#1" probability="0"/>
        </interval>
    </rerouter>
    <route id="378331049#0_-378331049#0" edges="378331049#0 -378331049#0 378331049#0"/>
    <route id="378331049#0_183061374#0" edges="378331049#0 183061374#0"/>
    <route id="378331049#0_378331049#1" edges="378331049#0 378331049#1"/>
    <rerouter id="rr_378331049#0" edges="378331049#0">
        <interval begin="0" end="600">
            <routeProbReroute id="378331049#0_-378331049#0" probability="0"/>
            <routeProbReroute id="378331049#0_183061374#0" probability="30.0"/>
            <routeProbReroute id="378331049#0_378331049#1" probability="50.0"/>
        </interval>
    </rerouter>
    <route id="-183061374#2_-183061374#1" edges="-183061374#2 -183061374#1"/>
    <route id="-183061374#2_-914632521" edges="-183061374#2 -914632521 914632521"/>
    <route id="-183061374#2_183061374#2" edges="-183061374#2 183061374#2"/>
    <route id="-183061374#2_914632523" edges="-183061374#2 914632523 -914632523"/>
    <rerouter id="rr_-183061374#2" edges="-183061374#2">
        <interval begin="0" end="600">
            <routeProbReroute id="-183061374#2_-183061374#1" probability="50.0"/>
            <routeProbReroute id="-183061374#2_-914632521" probability="30.0"/>
            <routeProbReroute id="-183061374#2_183061374#2" probability="0"/>
            <routeProbReroute id="-183061374#2_914632523" probability="20.0"/>
        </interval>
    </rerouter>
    <route id="-914632523_-183061374#1" edges="-914632523 -183061374#1"/>
    <route id="-914632523_-914632521" edges="-914632523 -914632521 914632521"/>
    <route id="-914632523_183061374#2" edges="-914632523 183061374#2"/>
    <route id="-914632523_914632523" edges="-914632523 914632523 -914632523"/>
    <rerouter id="rr_-914632523" edges="-914632523">
        <interval begin="0" end="600">
            <routeProbReroute id="-914632523_-183061374#1" probability="20.0"/>
            <routeProbReroute id="-914632523_-914632521" probability="50.0"/>
            <routeProbReroute id="-914632523_183061374#2" probability="30.0"/>
            <routeProbReroute id="-914632523_914632523" probability="0"/>
        </interval>
    </rerouter>
    <route id="183061374#1_-183061374#1" edges="183061374#1 -183061374#1"/>
    <route id="183061374#1_-914632521" edges="183061374#1 -914632521 914632521"/>
    <route id="183061374#1_183061374#2" edges="183061374#1 183061374#2"/>
    <route id="183061374#1_914632523" edges="183061374#1 914632523 -914632523"/>
    <rerouter id="rr_183061374#1" edges="183061374#1">
        <interval begin="0" end="600">
            <routeProbReroute id="183061374#1_-183061374#1" probability="0"/>
            <routeProbReroute id="183061374#1_-914632521" probability="20.0"/>
            <routeProbReroute id="183061374#1_183061374#2" probability="50.0"/>
            <routeProbReroute id="183061374#1_914632523" probability="30.0"/>
        </interval>
    </rerouter>
    <route id="914632521_-183061374#1" edges="914632521 -183061374#1"/>
    <route id="914632521_-914632521" edges="914632521 -914632521 914632521"/>
    <route id="914632521_183061374#2" edges="914632521 183061374#2"/>
    <route id="914632521_914632523" edges="914632521 914632523 -914632523"/>
    <rerouter id="rr_914632521" edges="914632521">
        <interval begin="0" end="600">
            <routeProbReroute id="914632521_-183061374#1" probability="30.0"/>