<?xml version="1.0" encoding="UTF-8"?>

<!-- generated on 11/23/21 15:26:22 by Eclipse SUMO duarouter Version 1.7.0
<configuration xmlns:xsi="http://www.w3.org/2001/XMLSchema-instance" xsi:noNamespaceSchemaLocation="http://sumo.dlr.de/xsd/duarouterConfiguration.xsd">

    <input>
        <net-file value="C:\Users\gggla\Sumo\2021-11-23-15-26-11\osm.net.xml"/>
        <route-files value="C:\Users\gggla\Sumo\2021-11-23-15-26-11\osm.passenger.trips.xml"/>
    </input>

    <output>
        <output-file value="C:\Users\gggla\Sumo\2021-11-23-15-26-11\osm.passenger.trips.xml.tmp"/>
        <write-trips value="true"/>
    </output>

    <time>
        <begin value="0"/>
        <end value="3600"/>
    </time>

    <report>
        <no-warnings value="true"/>
        <ignore-errors value="true"/>
        <no-step-log value="true"/>
    </report>

</configuration>
-->

<routes xmlns:xsi="http://www.w3.org/2001/XMLSchema-instance" xsi:noNamespaceSchemaLocation="http://sumo.dlr.de/xsd/routes_file.xsd">
    <vType id="veh_passenger" vClass="passenger"/>
    <trip id="veh0" type="veh_passenger" depart="0.00" departLane="best" departSpeed="max" from="379555980" to="-183895331#7"/>
    <trip id="veh1" type="veh_passenger" depart="2.89" departLane="best" from="379584840#1" to="379557990#3"/>
    <trip id="veh2" type="veh_passenger" depart="5.78" departLane="best" from="448204368#6" to="-378331042#0"/>
    <trip id="veh4" type="veh_passenger" depart="11.56" departLane="best" from="-183521170#2" to="-379578143#1"/>
    <trip id="veh5" type="veh_passenger" depart="14.45" departLane="best" from="379555994" to="332080691#8"/>
    <trip id="veh7" type="veh_passenger" depart="20.23" departLane="best" from="394282840#7" to="-183061374#3"/>
    <trip id="veh8" type="veh_passenger" depart="23.12" departLane="best" from="394282840#0" to="379574229"/>
    <trip id="veh9" type="veh_passenger" depart="26.01" departLane="best" from="-416453503#0" to="-379556012#0"/>
    <trip id="veh11" type="veh_passenger" depart="31.79" departLane="best" from="-337111077#3" to="-378331049#3"/>
    <trip id="veh12" type="veh_passenger" depart="34.68" departLane="best" departSpeed="max" from="416453525" to="378331049#1"/>
    <trip id="veh13" type="veh_passenger" depart="37.57" departLane="best" from="394282840#3" to="379581065"/>
    <trip id="veh14" type="veh_passenger" depart="40.46" departLane="best" from="-416461494#4" to="337111064"/>
    <trip id="veh15" type="veh_passenger" depart="43.35" departLane="best" from="416211543#1" to="378331061#3"/>
    <trip id="veh16" type="veh_passenger" depart="46.24" departLane="best" from="416456952#0" to="37400668#3"/>
    <trip id="veh17" type="veh_passenger" depart="49.13" departLane="best" from="379578139#6" to="-227626347#2"/>
    <trip id="veh18" type="veh_passenger" depart="52.02" departLane="best" departSpeed="max" from="-337111064" to="-379584863#0"/>
    <trip id="veh19" type="veh_passenger" depart="54.91" departLane="best" from="-37400668#5" to="-393310531#3"/>
    <trip id="veh20" type="veh_passenger" depart="57.80" departLane="best" from="379555978#1" to="-416461494#8"/>
    <trip id="veh21" type="veh_passenger" depart="60.69" departLane="best" from="-416456956#4" to="-379581050"/>
    <trip id="veh22" type="veh_passenger" depart="63.58" departLane="best" departSpeed="max" from="-379584852" to="518705250#7"/>
    <trip id="veh23" type="veh_passenger" depart="66.47" departLane="best" departSpeed="max" from="379555993" to="378331052#1"/>
    <trip id="veh24" type="veh_passenger" depart="69.36" departLane="best" from="-379555998#1" to="379581064#2"/>
    <trip id="veh25" type="veh_passenger" depart="72.25" departLane="best" departSpeed="max" from="-379555982" to="-448204368#7"/>
    <trip id="veh26" type="veh_passenger" depart="75.14" departLane="best" from="900620146#1" to="379555978#1"/>
    <trip id="veh27" type="veh_passenger" depart="78.03" departLane="best" from="332080691#4" to="379558029"/>
    <trip id="veh28" type="veh_passenger" depart="80.92" departLane="best" departSpeed="max" from="416453514" to="379603809#1"/>
    <trip id="veh29" type="veh_passenger" depart="83.81" departLane="best" from="-379578139#4" to="-218684410"/>
    <trip id="veh30" type="veh_passenger" depart="86.70" departLane="best" from="-393642755#7" to="-379603826#0"/>
    <trip id="veh31" type="veh_passenger" depart="89.59" departLane="best" departSpeed="max" from="-379567162#1" to="689327905#1"/>
    <trip id="veh32" type="veh_passenger" depart="92.48" departLane="best" from="416461494#11" to="-416211543#0"/>
    <trip id="veh33" type="veh_passenger" depart="95.37" departLane="best" from="379556000#1" to="-518705243#5"/>
    <trip id="veh34" type="veh_passenger" depart="98.26" departLane="best" from="518705243#8" to="183521081#1"/>
    <trip id="veh35" type="veh_passenger" depart="101.15" departLane="best" departSpeed="max" from="-379584852" to="-379598681#0"/>
    <trip id="veh36" type="veh_passenger" depart="104.04" departLane="best" from="337111078#2" to="-379603813"/>
    <trip id="veh37" type="veh_passenger" depart="106.93" departLane="best" from="37401829#6" to="469147010#3"/>
    <trip id="veh38" type="veh_passenger" depart="109.82" departLane="best" departSpeed="max" from="914632521" to="218769245#3"/>
    <trip id="veh39" type="veh_passenger" depart="112.71" departLane="best" departSpeed="max" from="-337111075#1" to="-227626347#4"/>
    <trip id="veh40" type="veh_passenger" depart="115.60" departLane="best" from="393310531#3" to="-518705250#5"/>
    <trip id="veh41" type="veh_passenger" depart="118.49" departLane="best" departSpeed="max" from="-26268518#6" to="-469144897#0"/>
    <trip id="veh42" type="veh_passenger" depart="121.38" departLane="best" departSpeed="max" from="914632521" to="26268518#6"/>
    <trip id="veh43" type="veh_passenger" depart="124.27" departLane="best" from="702362028" to="416456954"/>
    <trip id="veh44" type="veh_passenger" depart="127.16" departLane="best" departSpeed="max" from="-183521081#1" to="379578143#1"/>
    <trip id="veh45" type="veh_passenger" depart="130.05" departLane="best" from="379558026#0" to="263590506#2"/>
    <trip id="veh46" type="veh_passenger" depart="132.94" departLane="best" departSpeed="max" from="-379584852" to="379555982"/>
    <trip id="veh47" type="veh_passenger" depart="135.83" departLane="best" from="-37401829#8" to="-702362026"/>
    <trip id="veh49" type="veh_passenger" depart="141.61" departLane="best" from="183895331#4" to="-379558039#0"/>
    <trip id="veh50" type="veh_passenger" depart="144.50" departLane="best" from="518705243#7" to="416461494#1"/>
    <trip id="veh51" type="veh_passenger" depart="147.39" departLane="best" departSpeed="max" from="-379603835#2" to="379555977#3"/>
    <trip id="veh52" type="veh_passenger" depart="150.28" departLane="best" departSpeed="max" from="379603776" to="330258691"/>
    <trip id="veh53" type="veh_passenger" depart="153.17" departLane="best" from="379603826#3" to="26268518#6"/>
    <trip id="veh54" type="veh_passenger" depart="156.06" departLane="best" from="-172670186#1" to="-416453510#1"/>
    <trip id="veh55" type="veh_passenger" depart="158.95" departLane="best" from="-183521126#5" to="518705249#8"/>
    <trip id="veh56" type="veh_passenger" depart="161.84" departLane="best" from="416461494#6" to="416211543#1"/>
    <trip id="veh57" type="veh_passenger" depart="164.73" departLane="best" from="-393310533#2" to="-263590716"/>
    <trip id="veh58" type="veh_passenger" depart="167.62" departLane="best" from="416461494#5" to="689327905#3"/>
    <trip id="veh59" type="veh_passenger" depart="170.51" departLane="best" from="-337111067" to="183895338#3"/>
    <trip id="veh60" type="veh_passenger" depart="173.40" departLane="best" from="-263590645#1" to="379584859#4"/>
    <trip id="veh61" type="veh_passenger" depart="176.29" departLane="best" departSpeed="max" from="379603778" to="-379555974#0"/>
    <trip id="veh62" type="veh_passenger" depart="179.18" departLane="best" departSpeed="max" from="-379584852" to="416461494#3"/>
    <trip id="veh63" type="veh_passenger" depart="182.07" departLane="best" from="-518705249#2" to="-379581063#1"/>
    <trip id="veh64" type="veh_passenger" depart="184.96" departLane="best" from="227626347#4" to="379581065"/>
    <trip id="veh65" type="veh_passenger" depart="187.85" departLane="best" departSpeed="max" from="-379558039#1" to="-416211541#5"/>
    <trip id="veh66" type="veh_passenger" depart="190.74" departLane="best" departSpeed="max" from="914632521" to="379555997#3"/>
    <trip id="veh67" type="veh_passenger" depart="193.63" departLane="best" departSpeed="max" from="-518705250#7" to="218975372#6"/>
    <trip id="veh68" type="veh_passenger" depart="196.52" departLane="best" from="-378331043#4" to="-379584832#1"/>
    <trip id="veh69" type="veh_passenger" depart="199.41" departLane="best" from="-416211543#2" to="37401829#6"/>
    <trip id="veh70" type="veh_passenger" depart="202.30" departLane="best" from="-379578141" to="-379584831#3"/>
    <trip id="veh71" type="veh_passenger" depart="205.19" departLane="best" from="-332080691#1" to="378331075#1"/>
    <trip id="veh72" type="veh_passenger" depart="208.08" departLane="best" from="-379578139#4" to="518705243#5"/>
    <trip id="veh73" type="veh_passenger" depart="210.97" departLane="best" from="416456948" to="-37400668#3"/>
    <trip id="veh74" type="veh_passenger" depart="213.86" departLane="best" from="-379581064#0" to="379556017#0"/>
    <trip id="veh75" type="veh_passenger" depart="216.75" departLane="best" from="-379574231" to="-379555979"/>
    <trip id="veh76" type="veh_passenger" depart="219.64" departLane="best" from="518705250#0" to="337111083"/>
    <trip id="veh77" type="veh_passenger" depart="222.53" departLane="best" departSpeed="max" from="-914632523" to="379603831#2"/>
    <trip id="veh78" type="veh_passenger" depart="225.42" departLane="best" from="394282840#3" to="-379578137#5"/>
    <trip id="veh79" type="veh_passenger" depart="228.31" departLane="best" from="-345417589#0" to="-702362023#0"/>
    <trip id="veh80" type="veh_passenger" depart="231.20" departLane="best" from="-518705249#2" to="183521126#7"/>
    <trip id="veh81" type="veh_passenger" depart="234.09" departLane="best" from="379584831#2" to="379556023#0"/>
    <trip id="veh82" type="veh_passenger" depart="236.98" departLane="best" departSpeed="max" from="900620146#0" to="-378331050#3"/>
    <trip id="veh83" type="veh_passenger" depart="239.87" departLane="best" departSpeed="max" from="-469147010#3" to="-416456942#3"/>
    <trip id="veh84" type="veh_passenger" depart="242.76" departLane="best" from="416456952#0" to="-379598681#0"/>
    <trip id="veh85" type="veh_passenger" depart="245.65" departLane="best" from="-379557986#2" to="172670186#4"/>
    <trip id="veh86" type="veh_passenger" depart="248.54" departLane="best" from="-518705249#11" to="-393310533#0"/>
    <trip id="veh87" type="veh_passenger" depart="251.43" departLane="best" from="-379581073#1" to="518705249#4"/>
    <trip id="veh88" type="veh_passenger" depart="254.32" departLane="best" departSpeed="max" from="-629928365#3" to="416456955#0"/>
    <trip id="veh89" type="veh_passenger" depart="257.21" departLane="best" from="263590506#2" to="-26269734#2"/>
    <trip id="veh90" type="veh_passenger" depart="260.10" departLane="best" from="954536931#0" to="416453506#0"/>
    <trip id="veh91" type="veh_passenger" depart="262.99" departLane="best" departSpeed="max" from="416453525" to="-379557986#1"/>
    <trip id="veh92" type="veh_passenger" depart="265.88" departLane="best" from="183521082#5" to="-379581070#1"/>
    <trip id="veh93" type="veh_passenger" depart="268.77" departLane="best" from="-469147010#0" to="-332080691#0"/>
    <trip id="veh94" type="veh_passenger" depart="271.66" departLane="best" from="-416461494#5" to="82091418#1"/>
    <trip id="veh95" type="veh_passenger" depart="274.55" departLane="best" departSpeed="max" from="-379584852" to="379603831#1"/>
    <trip id="veh96" type="veh_passenger" depart="277.44" departLane="best" departSpeed="max" from="-702339101" to="-540235859#0"/>
    <trip id="veh98" type="veh_passenger" depart="283.22" departLane="best" from="332080691#1" to="379578139#5"/>
    <trip id="veh99" type="veh_passenger" depart="286.11" departLane="best" from="702362023#4" to="37401797#0"/>
    <trip id="veh100" type="veh_passenger" depart="289.00" departLane="best" from="26269734#0" to="379584831#7"/>
    <trip id="veh101" type="veh_passenger" depart="291.89" departLane="best" from="-227626347#1" to="37401829#11"/>
    <trip id="veh102" type="veh_passenger" depart="294.78" departLane="best" from="183895331#9" to="416456942#3"/>
    <trip id="veh104" type="veh_passenger" depart="300.56" departLane="best" departSpeed="max" from="-337111064" to="-379574231"/>
    <trip id="veh105" type="veh_passenger" depart="303.45" departLane="best" from="378331046#1" to="379557990#0"/>
    <trip id="veh106" type="veh_passenger" depart="306.34" departLane="best" from="-379581050" to="-378331074"/>
    <trip id="veh107" type="veh_passenger" depart="309.23" departLane="best" from="448204368#5" to="-379598648"/>
    <trip id="veh108" type="veh_passenger" depart="312.12" departLane="best" from="-518705249#1" to="37401829#10"/>
    <trip id="veh110" type="veh_passenger" depart="317.90" departLane="best" from="-379567126#1" to="379578138#7"/>
    <trip id="veh111" type="veh_passenger" depart="320.79" departLane="best" departSpeed="max" from="-379581064#2" to="-518705243#5"/>
    <trip id="veh112" type="veh_passenger" depart="323.68" departLane="best" from="379556023#0" to="-395577217#12"/>
    <trip id="veh113" type="veh_passenger" depart="326.57" departLane="best" from="-394282835" to="379584844"/>
    <trip id="veh114" type="veh_passenger" depart="329.46" departLane="best" from="-332080691#4" to="183521081#1"/>
    <trip id="veh115" type="veh_passenger" depart="332.35" departLane="best" from="954536929#1" to="914632523"/>
    <trip id="veh116" type="veh_passenger" depart="335.24" departLane="best" from="-332080691#6" to="-379581070#0"/>
    <trip id="veh117" type="veh_passenger" depart="338.13" departLane="best" departSpeed="max" from="-379584852" to="518705250#5"/>
    <trip id="veh118" type="veh_passenger" depart="341.02" departLane="best" from="416466755#2" to="448204368#0"/>
    <trip id="veh119" type="veh_passenger" depart="343.91" departLane="best" from="-416456956#3" to="-379556014#1"/>
    <trip id="veh120" type="veh_passenger" depart="346.80" departLane="best" from="416453502#1" to="379574254#1"/>
    <trip id="veh121" type="veh_passenger" depart="349.69" departLane="best" from="378331059#3" to="900620146#1"/>
    <trip id="veh122" type="veh_passenger" depart="352.58" departLane="best" from="379555998#1" to="-183521080"/>
    <trip id="veh123" type="veh_passenger" depart="355.47" departLane="best" from="379556014#1" to="629928365#2"/>
    <trip id="veh124" type="veh_passenger" depart="358.36" departLane="best" from="-37401829#3" to="337111065"/>
    <trip id="veh125" type="veh_passenger" depart="361.25" departLane="best" from="-379584859#3" to="378331050#0"/>
    <trip id="veh126" type="veh_passenger" depart="364.14" departLane="best" from="379555977#2" to="-379603813"/>
    <trip id="veh127" type="veh_passenger" depart="367.03" departLane="best" from="183521126#2" to="518705243#5"/>
    <trip id="veh128" type="veh_passenger" depart="369.92" departLane="best" from="416453515#1" to="-378331046#3"/>
    <trip id="veh129" type="veh_passenger" depart="372.81" departLane="best" from="-518705249#2" to="-393310531#0"/>
    <trip id="veh130" type="veh_passenger" depart="375.70" departLane="best" from="-172672023#1" to="379603739"/>
    <trip id="veh131" type="veh_passenger" depart="378.59" departLane="best" departSpeed="max" from="379555979" to="-379603813"/>
    <trip id="veh132" type="veh_passenger" depart="381.48" departLane="best" from="379584859#4" to="337111064"/>
    <trip id="veh133" type="veh_passenger" depart="384.37" departLane="best" from="-518705249#5" to="-183521082#3"/>
    <trip id="veh134" type="veh_passenger" depart="387.26" departLane="best" departSpeed="max" from="-332080691#8" to="448204368#3"/>
    <trip id="veh135" type="veh_passenger" depart="390.15" departLane="best" from="518705243#0" to="332080691#8"/>
    <trip id="veh136" type="veh_passenger" depart="393.04" departLane="best" from="416453503#1" to="37401829#1"/>
    <trip id="veh137" type="veh_passenger" depart="395.93" departLane="best" departSpeed="max" from="-378331069#1" to="-379555974#0"/>
    <trip id="veh138" type="veh_passenger" depart="398.82" departLane="best" from="-393310533#4" to="518705243#0"/>
    <trip id="veh139" type="veh_passenger" depart="401.71" departLane="best" from="393310533#7" to="416456954"/>
    <trip id="veh140" type="veh_passenger" depart="404.60" departLane="best" from="469144897#4" to="-379581060#0"/>
    <trip id="veh141" type="veh_passenger" depart="407.49" departLane="best" departSpeed="max" from="-379581071" to="-378331052#6"/>
    <trip id="veh142" type="veh_passenger" depart="410.38" departLane="best" from="-518705243#1" to="378331062"/>
    <trip id="veh143" type="veh_passenger" depart="413.27" departLane="best" from="416456955#2" to="702362024#0"/>
    <trip id="veh144" type="veh_passenger" depart="416.16" departLane="best" from="394282841#1" to="448204368#2"/>
    <trip id="veh145" type="veh_passenger" depart="419.05" departLane="best" departSpeed="max" from="-183521165#1" to="379581071"/>
    <trip id="veh146" type="veh_passenger" depart="421.94" departLane="best" departSpeed="max" from="-395577219" to="518705250#0"/>
    <trip id="veh147" type="veh_passenger" depart="424.83" departLane="best" from="393642755#4" to="416456956#2"/>
    <trip id="veh148" type="veh_passenger" depart="427.72" departLane="best" from="394282841#1" to="-379603817#5"/>
    <trip id="veh150" type="veh_passenger" depart="433.50" departLane="best" from="416457253" to="416456950"/>
    <trip id="veh151" type="veh_passenger" depart="436.39" departLane="best" from="-702362025" to="-416206251#0"/>
    <trip id="veh152" type="veh_passenger" depart="439.28" departLane="best" from="393310533#6" to="-379584842"/>
    <trip id="veh153" type="veh_passenger" depart="442.17" departLane="best" departSpeed="max" from="-183521165#1" to="-379578138#6"/>
    <trip id="veh154" type="veh_passenger" depart="445.06" departLane="best" from="-395577217#6" to="416456956#2"/>
    <trip id="veh155" type="veh_passenger" depart="447.95" departLane="best" from="702362022#1" to="-393310533#1"/>
    <trip id="veh156" type="veh_passenger" depart="450.84" departLane="best" from="379555983#1" to="-518705243#8"/>
    <trip id="veh157" type="veh_passenger" depart="453.73" departLane="best" departSpeed="max" from="900620146#0" to="263590506#1"/>
    <trip id="veh158" type="veh_passenger" depart="456.62" departLane="best" from="540235859#1" to="-378331066"/>
    <trip id="veh159" type="veh_passenger" depart="459.51" departLane="best" from="702362027" to="-379558039#0"/>
    <trip id="veh161" type="veh_passenger" depart="465.29" departLane="best" from="-37401829#5" to="-702362026"/>
    <trip id="veh162" type="veh_passenger" depart="468.18" departLane="best" from="378331052#3" to="218769245#7"/>
    <trip id="veh163" type="veh_passenger" depart="471.07" departLane="best" from="-448204368#0" to="37400668#1"/>
    <trip id="veh164" type="veh_passenger" depart="473.96" departLane="best" departSpeed="max" from="-379584829" to="379574258#4"/>
    <trip id="veh165" type="veh_passenger" depart="476.85" departLane="best" from="227626347#3" to="379578141"/>
    <trip id="veh166" type="veh_passenger" depart="479.74" departLane="best" from="379584863#0" to="379556021#0"/>
    <trip id="veh167" type="veh_passenger" depart="482.63" departLane="best" from="-416456952#0" to="-37400668#1"/>
    <trip id="veh168" type="veh_passenger" depart="485.52" departLane="best" from="379556015#0" to="-416453515#2"/>
    <trip id="veh169" type="veh_passenger" depart="488.41" departLane="best" from="-393642755#4" to="416455208"/>
    <trip id="veh170" type="veh_passenger" depart="491.30" departLane="best" from="379581060#0" to="-395577217#12"/>
    <trip id="veh171" type="veh_passenger" depart="494.19" departLane="best" from="-393310533#6" to="-518705249#2"/>
    <trip id="veh172" type="veh_passenger" depart="497.08" departLane="best" departSpeed="max" from="-469147010#3" to="-394282841#0"/>
    <trip id="veh173" type="veh_passenger" depart="499.97" departLane="best" from="-378331050#3" to="-518705250#2"/>
    <trip id="veh174" type="veh_passenger" depart="502.86" departLane="best" from="629928365#0" to="379557990#4"/>
    <trip id="veh175" type="veh_passenger" depart="505.75" departLane="best" from="469147011#1" to="378331060#1"/>
    <trip id="veh176" type="veh_passenger" depart="508.64" departLane="best" from="-392563821#1" to="337111063"/>
    <trip id="veh177" type="veh_passenger" depart="511.53" departLane="best" from="-172670186#0" to="-393642755#0"/>
    <trip id="veh178" type="veh_passenger" depart="514.42" departLane="best" from="-518705249#6" to="37401797#2"/>
    <trip id="veh179" type="veh_passenger" depart="517.31" departLane="best" from="379556000#0" to="183521126#2"/>
    <trip id="veh180" type="veh_passenger" depart="520.20" departLane="best" from="-914633241" to="518705243#1"/>
    <trip id="veh181" type="veh_passenger" depart="523.09" departLane="best" from="393310533#7" to="-379557990#5"/>
    <trip id="veh182" type="veh_passenger" depart="525.98" departLane="best" departSpeed="max" from="-337111066" to="218975372#11"/>
    <trip id="veh183" type="veh_passenger" depart="528.87" departLane="best" from="395577217#9" to="379584842"/>
    <trip id="veh184" type="veh_passenger" depart="531.76" departLane="best" from="379557986#2" to="-379584832#1"/>
    <trip id="veh185" type="veh_passenger" depart="534.65" departLane="best" from="-379558026#0" to="-183895331#6"/>
    <trip id="veh186" type="veh_passenger" depart="537.54" departLane="best" departSpeed="max" from="-379581070#2" to="183521170#2"/>
    <trip id="veh187" type="veh_passenger" depart="540.43" departLane="best" from="416455014" to="-37401797#1"/>
    <trip id="veh188" type="veh_passenger" depart="543.32" departLane="best" from="-379558007#3" to="379567162#1"/>
    <trip id="veh189" type="veh_passenger" depart="546.21" departLane="best" from="183521166#1" to="-379598625#0"/>
    <trip id="veh190" type="veh_passenger" depart="549.10" departLane="best" from="379556001" to="-183061374#1"/>
    <trip id="veh191" type="veh_passenger" depart="551.99" departLane="best" from="-37401829#11" to="-634224224"/>
    <trip id="veh193" type="veh_passenger" depart="557.77" departLane="best" from="183895347#6" to="-26269734#1"/>
    <trip id="veh194" type="veh_passenger" depart="560.66" departLane="best" departSpeed="max" from="-379581071" to="416455210#1"/>
    <trip id="veh195" type="veh_passenger" depart="563.55" departLane="best" from="-702362021" to="393310533#3"/>
    <trip id="veh196" type="veh_passenger" depart="566.44" departLane="best" from="379556017#1" to="900620146#2"/>
    <trip id="veh197" type="veh_passenger" depart="569.33" departLane="best" from="378331046#1" to="689327905#6"/>
    <trip id="veh198" type="veh_passenger" depart="572.22" departLane="best" from="448204368#6" to="378331059#1"/>
    <trip id="veh200" type="veh_passenger" depart="578.00" departLane="best" departSpeed="max" from="416212024#0" to="337111063"/>
    <trip id="veh201" type="veh_passenger" depart="580.89" departLane="best" departSpeed="max" from="469144897#0" to="379584829"/>
    <trip id="veh202" type="veh_passenger" depart="583.78" departLane="best" from="-954536931#0" to="-379603783"/>
    <trip id="veh203" type="veh_passenger" depart="586.67" departLane="best" departSpeed="max" from="-379581071" to="379555974#2"/>
    <trip id="veh204" type="veh_passenger" depart="589.56" departLane="best" departSpeed="max" from="379603778" to="227625254#1"/>
    <trip id="veh205" type="veh_passenger" depart="592.45" departLane="best" from="378331077#3" to="-392752139"/>
    <trip id="veh206" type="veh_passenger" depart="595.34" departLane="best" departSpeed="max" from="-337111063" to="-393642751#1"/>
    <trip id="veh207" type="veh_passenger" depart="598.23" departLane="best" from="-379584859#1" to="-416453503#0"/>
    <trip id="veh208" type="veh_passenger" depart="601.12" departLane="best" from="26268518#2" to="-379555986"/>
    <trip id="veh209" type="veh_passenger" depart="604.01" departLane="best" from="-379578142#1" to="379567147"/>
    <trip id="veh210" type="veh_passenger" depart="606.90" departLane="best" departSpeed="max" from="379578140" to="-337111078#1"/>
    <trip id="veh211" type="veh_passenger" depart="609.79" departLane="best" from="-518705243#3" to="332080691#2"/>
    <trip id="veh212" type="veh_passenger" depart="612.68" departLane="best" from="-518705249#10" to="518705243#5"/>
    <trip id="veh213" type="veh_passenger" depart="615.57" departLane="best" from="37401829#6" to="379567162#1"/>
    <trip id="veh214" type="veh_passenger" depart="618.46" departLane="best" from="416456944#1" to="379584863#1"/>
    <trip id="veh215" type="veh_passenger" depart="621.35" departLane="best" from="-416461494#8" to="-183061374#2"/>
    <trip id="veh216" type="veh_passenger" depart="624.24" departLane="best" from="-416455208" to="379584852"/>
    <trip id="veh218" type="veh_passenger" depart="630.02" departLane="best" from="-518705249#1" to="379584831#5"/>
    <trip id="veh219" type="veh_passenger" depart="632.91" departLane="best" from="26329557#1" to="378331046#4"/>
    <trip id="veh221" type="veh_passenger" depart="638.69" departLane="best" from="-518705250#3" to="-183895347#4"/>
    <trip id="veh222" type="veh_passenger" depart="641.58" departLane="best" from="-416211541#4" to="379558007#3"/>
    <trip id="veh223" type="veh_passenger" depart="644.47" departLane="best" from="-913942996" to="-379555974#0"/>
    <trip id="veh224" type="veh_passenger" depart="647.36" departLane="best" from="378331068#1" to="-183895343"/>
    <trip id="veh225" type="veh_passenger" depart="650.25" departLane="best" from="-448204368#7" to="337111077#3"/>
    <trip id="veh226" type="veh_passenger" depart="653.14" departLane="best" from="-183521170#3" to="379555982"/>
    <trip id="veh227" type="veh_passenger" depart="656.03" departLane="best" from="-378331059#6" to="183521082#4"/>
    <trip id="veh228" type="veh_passenger" depart="658.92" departLane="best" departSpeed="max" from="-218975372#11" to="-448204368#7"/>
    <trip id="veh229" type="veh_passenger" depart="661.81" departLane="best" departSpeed="max" from="-379567162#1" to="-416453514"/>
    <trip id="veh230" type="veh_passenger" depart="664.70" departLane="best" departSpeed="max" from="-379581073#2" to="-37401829#7"/>
    <trip id="veh231" type="veh_passenger" depart="667.59" departLane="best" from="-183521126#5" to="330258691"/>
    <trip id="veh232" type="veh_passenger" depart="670.48" departLane="best" from="954536931#1" to="-416456955#3"/>
    <trip id="veh233" type="veh_passenger" depart="673.37" departLane="best" from="379555994" to="379603819"/>
    <trip id="veh234" type="veh_passenger" depart="676.26" departLane="best" from="689327905#6" to="-379578144"/>
    <trip id="veh235" type="veh_passenger" depart="679.15" departLane="best" from="-183521126#7" to="-379556003#1"/>
    <trip id="veh236" type="veh_passenger" depart="682.04" departLane="best" from="-378331050#0" to="379556017#1"/>
    <trip id="veh237" type="veh_passenger" depart="684.93" departLane="best" from="337111080#2" to="-379581081"/>
    <trip id="veh238" type="veh_passenger" depart="687.82" departLane="best" from="379578138#2" to="379598577#2"/>
    <trip id="veh239" type="veh_passenger" depart="690.71" departLane="best" from="-379555994" to="378331050#5"/>
    <trip id="veh240" type="veh_passenger" depart="693.60" departLane="best" departSpeed="max" from="379598581" to="-378331066"/>
    <trip id="veh241" type="veh_passenger" depart="696.49" departLane="best" from="416206251#0" to="700433858#2"/>
    <trip id="veh242" type="veh_passenger" depart="699.38" departLane="best" from="-37401829#5" to="-183895331#9"/>
    <trip id="veh243" type="veh_passenger" depart="702.27" departLane="best" from="-393642751#2" to="379557990#4"/>
    <trip id="veh245" type="veh_passenger" depart="708.05" departLane="best" departSpeed="max" from="379578147" to="-37401829#1"/>
    <trip id="veh246" type="veh_passenger" depart="710.94" departLane="best" from="379567162#0" to="378331069#1"/>
    <trip id="veh247" type="veh_passenger" depart="713.83" departLane="best" from="-37401797#1" to="379603743"/>
    <trip id="veh248" type="veh_passenger" depart="716.72" departLane="best" from="416455208" to="378331044#0"/>
    <trip id="veh249" type="veh_passenger" depart="719.61" departLane="best" from="392563822" to="-416456953"/>
    <trip id="veh250" type="veh_passenger" depart="722.50" departLane="best" from="-518705249#5" to="-448204368#0"/>
    <trip id="veh251" type="veh_passenger" depart="725.39" departLane="best" from="183895338#1" to="-416456944#2"/>
    <trip id="veh252" type="veh_passenger" depart="728.28" departLane="best" from="416455014" to="395577217#7"/>
    <trip id="veh254" type="veh_passenger" depart="734.06" departLane="best" departSpeed="max" from="379578140" to="-702362028"/>
    <trip id="veh255" type="veh_passenger" depart="736.95" departLane="best" from="379584832#1" to="700433858#2"/>
    <trip id="veh256" type="veh_passenger" depart="739.84" departLane="best" departSpeed="max" from="-379584853#1" to="393642755#6"/>
    <trip id="veh257" type="veh_passenger" depart="742.73" departLane="best" from="-518705250#2" to="379581068"/>