<?xml version="1.0" encoding="UTF-8"?>
<!-- generated on 2021-11-23 14:42:17.237436 by generateContinuousRerouters.py v1_7_0+0000-714814baed
  options: -n spider.net.xml <doubleminus>end 600 -o rerouter.add.xml
-->
<additional xmlns:xsi="http://www.w3.org/2001/XMLSchema-instance" xsi:noNamespaceSchemaLocation="http://sumo.dlr.de/xsd/additional_file.xsd">
    <route id="B1A1_A1B1" edges="B1A1 A1B1"/>
    <route id="B1A1_A1B2" edges="B1A1 A1B2"/>
    <route id="B1A1_A1B3" edges="B1A1 A1B3"/>
    <route id="B1A1_A1B4" edges="B1A1 A1B4"/>
    <route id="B1A1_A1B5" edges="B1A1 A1B5"/>
    <route id="B1A1_A1B6" edges="B1A1 A1B6"/>
    <route id="B1A1_A1B7" edges="B1A1 A1B7"/>
    <rerouter id="rr_B1A1" edges="B1A1">
        <interval begin="0" end="600">
            <routeProbReroute id="B1A1_A1B1" probability="0"/>
            <routeProbReroute id="B1A1_A1B2" probability="30.0"/>
            <routeProbReroute id="B1A1_A1B3" probability="30.0"/>
            <routeProbReroute id="B1A1_A1B4" probability="30.0"/>
            <routeProbReroute id="B1A1_A1B5" probability="50.0"/>
            <routeProbReroute id="B1A1_A1B6" probability="20.0"/>
            <routeProbReroute id="B1A1_A1B7" probability="20.0"/>
        </interval>
    </rerouter>
    <route id="B2A1_A1B1" edges="B2A1 A1B1"/>
    <route id="B2A1_A1B2" edges="B2A1 A1B2"/>
    <route id="B2A1_A1B3" edges="B2A1 A1B3"/>
    <route id="B2A1_A1B4" edges="B2A1 A1B4"/>
    <route id="B2A1_A1B5" edges="B2A1 A1B5"/>
    <route id="B2A1_A1B6" edges="B2A1 A1B6"/>
    <route id="B2A1_A1B7" edges="B2A1 A1B7"/>
    <rerouter id="rr_B2A1" edges="B2A1">
        <interval begin="0" end="600">
            <routeProbReroute id="B2A1_A1B1" probability="20.0"/>
            <routeProbReroute id="B2A1_A1B2" probability="0"/>
            <routeProbReroute id="B2A1_A1B3" probability="30.0"/>
            <routeProbReroute id="B2A1_A1B4" probability="30.0"/>
            <routeProbReroute id="B2A1_A1B5" probability="30.0"/>
            <routeProbReroute id="B2A1_A1B6" probability="50.0"/>
            <routeProbReroute id="B2A1_A1B7" probability="20.0"/>
        </interval>
    </rerouter>
    <route id="B3A1_A1B1" edges="B3A1 A1B1"/>
    <route id="B3A1_A1B2" edges="B3A1 A1B2"/>
    <route id="B3A1_A1B3" edges="B3A1 A1B3"/>
    <route id="B3A1_A1B4" edges="B3A1 A1B4"/>
    <route id="B3A1_A1B5" edges="B3A1 A1B5"/>
    <route id="B3A1_A1B6" edges="B3A1 A1B6"/>
    <route id="B3A1_A1B7" edges="B3A1 A1B7"/>
    <rerouter id="rr_B3A1" edges="B3A1">
        <interval begin="0" end="600">
            <routeProbReroute id="B3A1_A1B1" probability="20.0"/>
            <routeProbReroute id="B3A1_A1B2" probability="20.0"/>
            <routeProbReroute id="B3A1_A1B3" probability="0"/>
            <routeProbReroute id="B3A1_A1B4" probability="30.0"/>
            <routeProbReroute id="B3A1_A1B5" probability="30.0"/>
            <routeProbReroute id="B3A1_A1B6" probability="30.0"/>
            <routeProbReroute id="B3A1_A1B7" probability="50.0"/>
        </interval>
    </rerouter>
    <route id="B4A1_A1B1" edges="B4A1 A1B1"/>
    <route id="B4A1_A1B2" edges="B4A1 A1B2"/>
    <route id="B4A1_A1B3" edges="B4A1 A1B3"/>
    <route id="B4A1_A1B4" edges="B4A1 A1B4"/>
    <route id="B4A1_A1B5" edges="B4A1 A1B5"/>
    <route id="B4A1_A1B6" edges="B4A1 A1B6"/>
    <route id="B4A1_A1B7" edges="B4A1 A1B7"/>
    <rerouter id="rr_B4A1" edges="B4A1">
        <interval begin="0" end="600">
            <routeProbReroute id="B4A1_A1B1" probability="20.0"/>
            <routeProbReroute id="B4A1_A1B2" probability="20.0"/>
            <routeProbReroute id="B4A1_A1B3" probability="20.0"/>
            <routeProbReroute id="B4A1_A1B4" probability="0"/>
            <routeProbReroute id="B4A1_A1B5" probability="30.0"/>
            <routeProbReroute id="B4A1_A1B6" probability="30.0"/>
            <routeProbReroute id="B4A1_A1B7" probability="50.0"/>
        </interval>
    </rerouter>
    <route id="B5A1_A1B1" edges="B5A1 A1B1"/>
    <route id="B5A1_A1B2" edges="B5A1 A1B2"/>
    <route id="B5A1_A1B3" edges="B5A1 A1B3"/>
    <route id="B5A1_A1B4" edges="B5A1 A1B4"/>
    <route id="B5A1_A1B5" edges="B5A1 A1B5"/>
    <route id="B5A1_A1B6" edges="B5A1 A1B6"/>
    <route id="B5A1_A1B7" edges="B5A1 A1B7"/>
    <rerouter id="rr_B5A1" edges="B5A1">
        <interval begin="0" end="600">
            <routeProbReroute id="B5A1_A1B1" probability="50.0"/>
            <routeProbReroute id="B5A1_A1B2" probability="50.0"/>
            <routeProbReroute id="B5A1_A1B3" probability="20.0"/>
            <routeProbReroute id="B5A1_A1B4" probability="20.0"/>
            <routeProbReroute id="B5A1_A1B5" probability="0"/>
            <routeProbReroute id="B5A1_A1B6" probability="30.0"/>
            <routeProbReroute id="B5A1_A1B7" probability="30.0"/>
        </interval>
    </rerouter>
    <route id="B6A1_A1B1" edges="B6A1 A1B1"/>
    <route id="B6A1_A1B2" edges="B6A1 A1B2"/>
    <route id="B6A1_A1B3" edges="B6A1 A1B3"/>
    <route id="B6A1_A1B4" edges="B6A1 A1B4"/>
    <route id="B6A1_A1B5" edges="B6A1 A1B5"/>
    <route id="B6A1_A1B6" edges="B6A1 A1B6"/>
    <route id="B6A1_A1B7" edges="B6A1 A1B7"/>
    <rerouter id="rr_B6A1" edges="B6A1">
        <interval begin="0" end="600">
            <routeProbReroute id="B6A1_A1B1" probability="30.0"/>
            <routeProbReroute id="B6A1_A1B2" probability="50.0"/>
            <routeProbReroute id="B6A1_A1B3" probability="50.0"/>
            <routeProbReroute id="B6A1_A1B4" probability="20.0"/>
            <routeProbReroute id="B6A1_A1B5" probability="20.0"/>
            <routeProbReroute id="B6A1_A1B6" probability="0"/>
            <routeProbReroute id="B6A1_A1B7" probability="30.0"/>
        </interval>
    </rerouter>
    <route id="B7A1_A1B1" edges="B7A1 A1B1"/>
    <route id="B7A1_A1B2" edges="B7A1 A1B2"/>
    <route id="B7A1_A1B3" edges="B7A1 A1B3"/>
    <route id="B7A1_A1B4" edges="B7A1 A1B4"/>
    <route id="B7A1_A1B5" edges="B7A1 A1B5"/>
    <route id="B7A1_A1B6" edges="B7A1 A1B6"/>
    <route id="B7A1_A1B7" edges="B7A1 A1B7"/>
    <rerouter id="rr_B7A1" edges="B7A1">
        <interval begin="0" end="600">
            <routeProbReroute id="B7A1_A1B1" probability="30.0"/>
            <routeProbReroute id="B7A1_A1B2" probability="30.0"/>
            <routeProbReroute id="B7A1_A1B3" probability="50.0"/>
            <routeProbReroute id="B7A1_A1B4" probability="20.0"/>
            <routeProbReroute id="B7A1_A1B5" probability="20.0"/>
            <routeProbReroute id="B7A1_A1B6" probability="20.0"/>
            <routeProbReroute id="B7A1_A1B7" probability="0"/>
        </interval>
    </rerouter>
    <route id="A1B1_B1A1" edges="A1B1 B1A1"/>
    <route id="A1B1_B1B2" edges="A1B1 B1B2"/>
    <route id="A1B1_B1B7" edges="A1B1 B1B7"/>
    <route id="A1B1_B1C1" edges="A1B1 B1C1"/>
    <rerouter id="rr_A1B1" edges="A1B1">
        <interval begin="0" end="600">
            <routeProbReroute id="A1B1_B1A1" probability="0"/>
            <routeProbReroute id="A1B1_B1B2" probability="20.0"/>
            <routeProbReroute id="A1B1_B1B7" probability="30.0"/>
            <routeProbReroute id="A1B1_B1C1" probability="50.0"/>
        </interval>
    </rerouter>
    <route id="B2B1_B1A1" edges="B2B1 B1A1"/>
    <route id="B2B1_B1B2" edges="B2B1 B1B2"/>
    <route id="B2B1_B1B7" edges="B2B1 B1B7"/>
    <route id="B2B1_B1C1" edges="B2B1 B1C1"/>
    <rerouter id="rr_B2B1" edges="B2B1">
        <interval begin="0" end="600">
            <routeProbReroute id="B2B1_B1A1" probability="30.0"/>
            <routeProbReroute id="B2B1_B1B2" probability="0"/>
            <routeProbReroute id="B2B1_B1B7" probability="30.0"/>
            <routeProbReroute id="B2B1_B1C1" probability="20.0"/>
        </interval>
    </rerouter>
    <route id="B7B1_B1A1" edges="B7B1 B1A1"/>
    <route id="B7B1_B1B2" edges="B7B1 B1B2"/>
    <route id="B7B1_B1B7" edges="B7B1 B1B7"/>
    <route id="B7B1_B1C1" edges="B7B1 B1C1"/>
    <rerouter id="rr_B7B1" edges="B7B1">
        <interval begin="0" end="600">
            <routeProbReroute id="B7B1_B1A1" probability="20.0"/>
            <routeProbReroute id="B7B1_B1B2" probability="20.0"/>
            <routeProbReroute id="B7B1_B1B7" probability="0"/>
            <routeProbReroute id="B7B1_B1C1" probability="30.0"/>
        </interval>
    </rerouter>
    <route id="C1B1_B1A1" edges="C1B1 B1A1"/>
    <route id="C1B1_B1B2" edges="C1B1 B1B2"/>
    <route id="C1B1_B1B7" edges="C1B1 B1B7"/>
    <route id="C1B1_B1C1" edges="C1B1 B1C1"/>
    <rerouter id="rr_C1B1" edges="C1B1">
        <interval begin="0" end="600">
            <routeProbReroute id="C1B1_B1A1" probability="50.0"/>
            <routeProbReroute id="C1B1_B1B2" probability="30.0"/>
            <routeProbReroute id="C1B1_B1B7" probability="20.0"/>
            <routeProbReroute id="C1B1_B1C1" probability="0"/>
        </interval>
    </rerouter>
    <route id="A1B2_B2A1" edges="A1B2 B2A1"/>
    <route id="A1B2_B2B1" edges="A1B2 B2B1"/>
    <route id="A1B2_B2B3" edges="A1B2 B2B3"/>
    <route id="A1B2_B2C2" edges="A1B2 B2C2"/>
    <rerouter id="rr_A1B2" edges="A1B2">
        <interval begin="0" end="600">
            <routeProbReroute id="A1B2_B2A1" probability="0"/>
            <routeProbReroute id="A1B2_B2B1" probability="30.0"/>
            <routeProbReroute id="A1B2_B2B3" probability="20.0"/>
            <routeProbReroute id="A1B2_B2C2" probability="50.0"/>
        </interval>
    </rerouter>
    <route id="B1B2_B2A1" edges="B1B2 B2A1"/>
    <route id="B1B2_B2B1" edges="B1B2 B2B1"/>
    <route id="B1B2_B2B3" edges="B1B2 B2B3"/>
    <route id="B1B2_B2C2" edges="B1B2 B2C2"/>
    <rerouter id="rr_B1B2" edges="B1B2">
        <interval begin="0" end="600">
            <routeProbReroute id="B1B2_B2A1" probability="20.0"/>
            <routeProbReroute id="B1B2_B2B1" probability="0"/>
            <routeProbReroute id="B1B2_B2B3" probability="20.0"/>
            <routeProbReroute id="B1B2_B2C2" probability="30.0"/>
        </interval>
    </rerouter>
    <route id="B3B2_B2A1" edges="B3B2 B2A1"/>
    <route id="B3B2_B2B1" edges="B3B2 B2B1"/>
    <route id="B3B2_B2B3" edges="B3B2 B2B3"/>
    <route id="B3B2_B2C2" edges="B3B2 B2C2"/>
    <rerouter id="rr_B3B2" edges="B3B2">
        <interval begin="0" end="600">
            <routeProbReroute id="B3B2_B2A1" probability="30.0"/>
            <routeProbReroute id="B3B2_B2B1" probability="30.0"/>
            <routeProbReroute id="B3B2_B2B3" probability="0"/>
            <routeProbReroute id="B3B2_B2C2" probability="20.0"/>
        </interval>
    </rerouter>
    <route id="C2B2_B2A1" edges="C2B2 B2A1"/>
    <route id="C2B2_B2B1" edges="C2B2 B2B1"/>
    <route id="C2B2_B2B3" edges="C2B2 B2B3"/>
    <route id="C2B2_B2C2" edges="C2B2 B2C2"/>
    <rerouter id="rr_C2B2" edges="C2B2">
        <interval begin="0" end="600">
            <routeProbReroute id="C2B2_B2A1" probability="50.0"/>
            <routeProbReroute id="C2B2_B2B1" probability="20.0"/>
            <routeProbReroute id="C2B2_B2B3" probability="30.0"/>
            <routeProbReroute id="C2B2_B2C2" probability="0"/>
        </interval>
    </rerouter>
    <route id="A1B3_B3A1" edges="A1B3 B3A1"/>
    <route id="A1B3_B3B2" edges="A1B3 B3B2"/>
    <route id="A1B3_B3B4" edges="A1B3 B3B4"/>
    <route id="A1B3_B3C3" edges="A1B3 B3C3"/>
    <rerouter id="rr_A1B3" edges="A1B3">
        <interval begin="0" end="600">
            <routeProbReroute id="A1B3_B3A1" probability="0"/>
            <routeProbReroute id="A1B3_B3B2" probability="30.0"/>
            <routeProbReroute id="A1B3_B3B4" probability="20.0"/>
            <routeProbReroute id="A1B3_B3C3" probability="50.0"/>
        </interval>
    </rerouter>
    <route id="B2B3_B3A1" edges="B2B3 B3A1"/>
    <route id="B2B3_B3B2" edges="B2B3 B3B2"/>
    <route id="B2B3_B3B4" edges="B2B3 B3B4"/>
    <route id="B2B3_B3C3" edges="B2B3 B3C3"/>
    <rerouter id="rr_B2B3" edges="B2B3">
        <interval begin="0" end="600">
            <routeProbReroute id="B2B3_B3A1" probability="20.0"/>
            <routeProbReroute id="B2B3_B3B2" probability="0"/>
            <routeProbReroute id="B2B3_B3B4" probability="20.0"/>
            <routeProbReroute id="B2B3_B3C3" probability="30.0"/>
        </interval>
    </rerouter>
    <route id="B4B3_B3A1" edges="B4B3 B3A1"/>
    <route id="B4B3_B3B2" edges="B4B3 B3B2"/>
    <route id="B4B3_B3B4" edges="B4B3 B3B4"/>
    <route id="B4B3_B3C3" edges="B4B3 B3C3"/>
    <rerouter id="rr_B4B3" edges="B4B3">
        <interval begin="0" end="600">
            <routeProbReroute id="B4B3_B3A1" probability="30.0"/>
            <routeProbReroute id="B4B3_B3B2" probability="30.0"/>
            <routeProbReroute id="B4B3_B3B4" probability="0"/>
            <routeProbReroute id="B4B3_B3C3" probability="20.0"/>
        </interval>
    </rerouter>
    <route id="C3B3_B3A1" edges="C3B3 B3A1"/>
    <route id="C3B3_B3B2" edges="C3B3 B3B2"/>
    <route id="C3B3_B3B4" edges="C3B3 B3B4"/>
    <route id="C3B3_B3C3" edges="C3B3 B3C3"/>
    <rerouter id="rr_C3B3" edges="C3B3">
        <interval begin="0" end="600">
            <routeProbReroute id="C3B3_B3A1" probability="50.0"/>
            <routeProbReroute id="C3B3_B3B2" probability="20.0"/>
            <routeProbReroute id="C3B3_B3B4" probability="30.0"/>
            <routeProbReroute id="C3B3_B3C3" probability="0"/>
        </interval>
    </rerouter>
    <route id="A1B4_B4A1" edges="A1B4 B4A1"/>
    <route id="A1B4_B4B3" edges="A1B4 B4B3"/>
    <route id="A1B4_B4B5" edges="A1B4 B4B5"/>
    <route id="A1B4_B4C4" edges="A1B4 B4C4"/>
    <rerouter id="rr_A1B4" edges="A1B4">
        <interval begin="0" end="600">
            <routeProbReroute id="A1B4_B4A1" probability="0"/>
            <routeProbReroute id="A1B4_B4B3" probability="30.0"/>
            <routeProbReroute id="A1B4_B4B5" probability="20.0"/>
            <routeProbReroute id="A1B4_B4C4" probability="50.0"/>
        </interval>
    </rerouter>
    <route id="B3B4_B4A1" edges="B3B4 B4A1"/>
    <route id="B3B4_B4B3" edges="B3B4 B4B3"/>
    <route id="B3B4_B4B5" edges="B3B4 B4B5"/>
    <route id="B3B4_B4C4" edges="B3B4 B4C4"/>
    <rerouter id="rr_B3B4" edges="B3B4">
        <interval begin="0" end="600">
            <routeProbReroute id="B3B4_B4A1" probability="20.0"/>
            <routeProbReroute id="B3B4_B4B3" probability="0"/>
            <routeProbReroute id="B3B4_B4B5" probability="20.0"/>
            <routeProbReroute id="B3B4_B4C4" probability="30.0"/>
        </interval>
    </rerouter>
    <route id="B5B4_B4A1" edges="B5B4 B4A1"/>
    <route id="B5B4_B4B3" edges="B5B4 B4B3"/>
    <route id="B5B4_B4B5" edges="B5B4 B4B5"/>
    <route id="B5B4_B4C4" edges="B5B4 B4C4"/>
    <rerouter id="rr_B5B4" edges="B5B4">
        <interval begin="0" end="600">
            <routeProbReroute id="B5B4_B4A1" probability="30.0"/>
            <routeProbReroute id="B5B4_B4B3" probability="30.0"/>
            <routeProbReroute id="B5B4_B4B5" probability="0"/>
            <routeProbReroute id="B5B4_B4C4" probability="20.0"/>
        </interval>
    </rerouter>
    <route id="C4B4_B4A1" edges="C4B4 B4A1"/>
    <route id="C4B4_B4B3" edges="C4B4 B4B3"/>
    <route id="C4B4_B4B5" edges="C4B4 B4B5"/>
    <route id="C4B4_B4C4" edges="C4B4 B4C4"/>
    <rerouter id="rr_C4B4" edges="C4B4">
        <interval begin="0" end="600">
            <routeProbReroute id="C4B4_B4A1" probability="50.0"/>
            <routeProbReroute id="C4B4_B4B3" probability="20.0"/>
            <routeProbReroute id="C4B4_B4B5" probability="30.0"/>
            <routeProbReroute id="C4B4_B4C4" probability="0"/>
        </interval>
    </rerouter>
    <route id="A1B5_B5A1" edges="A1B5 B5A1"/>
    <route id="A1B5_B5B4" edges="A1B5 B5B4"/>
    <route id="A1B5_B5B6" edges="A1B5 B5B6"/>
    <route id="A1B5_B5C5" edges="A1B5 B5C5"/>
    <rerouter id="rr_A1B5" edges="A1B5">
        <interval begin="0" end="600">
            <routeProbReroute id="A1B5_B5A1" probability="0"/>
            <routeProbReroute id="A1B5_B5B4" probability="30.0"/>
            <routeProbReroute id="A1B5_B5B6" probability="20.0"/>
            <routeProbReroute id="A1B5_B5C5" probability="50.0"/>
        </interval>
    </rerouter>
    <route id="B4B5_B5A1" edges="B4B5 B5A1"/>
    <route id="B4B5_B5B4" edges="B4B5 B5B4"/>
    <route id="B4B5_B5B6" edges="B4B5 B5B6"/>
    <route id="B4B5_B5C5" edges="B4B5 B5C5"/>
    <rerouter id="rr_B4B5" edges="B4B5">
        <interval begin="0" end="600">
            <routeProbReroute id="B4B5_B5A1" probability="20.0"/>
            <routeProbReroute id="B4B5_B5B4" probability="0"/>
            <routeProbReroute id="B4B5_B5B6" probability="20.0"/>
            <routeProbReroute id="B4B5_B5C5" probability="30.0"/>
        </interval>
    </rerouter>
    <route id="B6B5_B5A1" edges="B6B5 B5A1"/>
    <route id="B6B5_B5B4" edges="B6B5 B5B4"/>
    <route id="B6B5_B5B6" edges="B6B5 B5B6"/>
    <route id="B6B5_B5C5" edges="B6B5 B5C5"/>
    <rerouter id="rr_B6B5" edges="B6B5">
        <interval begin="0" end="600">
            <routeProbReroute id="B6B5_B5A1" probability="30.0"/>
            <routeProbReroute id="B6B5_B5B4" probability="30.0"/>
            <routeProbReroute id="B6B5_B5B6" probability="0"/>
            <routeProbReroute id="B6B5_B5C5" probability="20.0"/>
        </interval>
    </rerouter>
    <route id="C5B5_B5A1" edges="C5B5 B5A1"/>
    <route id="C5B5_B5B4" edges="C5B5 B5B4"/>
    <route id="C5B5_B5B6" edges="C5B5 B5B6"/>
    <route id="C5B5_B5C5" edges="C5B5 B5C5"/>
    <rerouter id="rr_C5B5" edges="C5B5">
        <interval begin="0" end="600">
            <routeProbReroute id="C5B5_B5A1" probability="50.0"/>
            <routeProbReroute id="C5B5_B5B4" probability="20.0"/>
            <routeProbReroute id="C5B5_B5B6" probability="30.0"/>
            <routeProbReroute id="C5B5_B5C5" probability="0"/>
        </interval>
    </rerouter>
    <route id="A1B6_B6A1" edges="A1B6 B6A1"/>
    <route id="A1B6_B6B5" edges="A1B6 B6B5"/>
    <route id="A1B6_B6B7" edges="A1B6 B6B7"/>
    <route id="A1B6_B6C6" edges="A1B6 B6C6"/>
    <rerouter id="rr_A1B6" edges="A1B6">
        <interval begin="0" end="600">
            <routeProbReroute id="A1B6_B6A1" probability="0"/>
            <routeProbReroute id="A1B6_B6B5" probability="30.0"/>
            <routeProbReroute id="A1B6_B6B7" probability="20.0"/>
            <routeProbReroute id="A1B6_B6C6" probability="50.0"/>
        </interval>
    </rerouter>
    <route id="B5B6_B6A1" edges="B5B6 B6A1"/>
    <route id="B5B6_B6B5" edges="B5B6 B6B5"/>
    <route id="B5B6_B6B7" edges="B5B6 B6B7"/>
    <route id="B5B6_B6C6" edges="B5B6 B6C6"/>
    <rerouter id="rr_B5B6" edges="B5B6">
        <interval begin="0" end="600">
            <routeProbReroute id="B5B6_B6A1" probability="20.0"/>
            <routeProbReroute id="B5B6_B6B5" probability="0"/>
            <routeProbReroute id="B5B6_B6B7" probability="20.0"/>
            <routeProbReroute id="B5B6_B6C6" probability="30.0"/>
        </interval>
    </rerouter>
    <route id="B7B6_B6A1" edges="B7B6 B6A1"/>
    <route id="B7B6_B6B5" edges="B7B6 B6B5"/>
    <route id="B7B6_B6B7" edges="B7B6 B6B7"/>
    <route id="B7B6_B6C6" edges="B7B6 B6C6"/>
    <rerouter id="rr_B7B6" edges="B7B6">
        <interval begin="0" end="600">
            <routeProbReroute id="B7B6_B6A1" probability="30.0"/>
            <routeProbReroute id="B7B6_B6B5" probability="30.0"/>
            <routeProbReroute id="B7B6_B6B7" probability="0"/>
            <routeProbReroute id="B7B6_B6C6" probability="20.0"/>
        </interval>
    </rerouter>
    <route id="C6B6_B6A1" edges="C6B6 B6A1"/>
    <route id="C6B6_B6B5" edges="C6B6 B6B5"/>
    <route id="C6B6_B6B7" edges="C6B6 B6B7"/>
    <route id="C6B6_B6C6" edges="C6B6 B6C6"/>
    <rerouter id="rr_C6B6" edges="C6B6">
        <interval begin="0" end="600">
            <routeProbReroute id="C6B6_B6A1" probability="50.0"/>
            <routeProbReroute id="C6B6_B6B5" probability="20.0"/>
            <routeProbReroute id="C6B6_B6B7" probability="30.0"/>
            <routeProbReroute id="C6B6_B6C6" probability="0"/>
        </interval>
    </rerouter>
    <route id="A1B7_B7A1" edges="A1B7 B7A1"/>
    <route id="A1B7_B7B1" edges="A1B7 B7B1"/>
    <route id="A1B7_B7B6" edges="A1B7 B7B6"/>
    <route id="A1B7_B7C7" edges="A1B7 B7C7"/>
    <rerouter id="rr_A1B7" edges="A1B7">
        <interval begin="0" end="600">
            <routeProbReroute id="A1B7_B7A1" probability="0"/>
            <routeProbReroute id="A1B7_B7B1" probability="20.0"/>
            <routeProbReroute id="A1B7_B7B6" probability="30.0"/>
            <routeProbReroute id="A1B7_B7C7" probability="50.0"/>
        </interval>
    </rerouter>
    <route id="B1B7_B7A1" edges="B1B7 B7A1"/>
    <route id="B1B7_B7B1" edges="B1B7 B7B1"/>
    <route id="B1B7_B7B6" edges="B1B7 B7B6"/>
    <route id="B1B7_B7C7" edges="B1B7 B7C7"/>
    <rerouter id="rr_B1B7" edges="B1B7">
        <interval begin="0" end="600">
            <routeProbReroute id="B1B7_B7A1" probability="30.0"/>
            <routeProbReroute id="B1B7_B7B1" probability="0"/>
            <routeProbReroute id="B1B7_B7B6" probability="30.0"/>
            <routeProbReroute id="B1B7_B7C7" probability="20.0"/>
        </interval>
    </rerouter>
    <route id="B6B7_B7A1" edges="B6B7 B7A1"/>
    <route id="B6B7_B7B1" edges="B6B7 B7B1"/>
    <route id="B6B7_B7B6" edges="B6B7 B7B6"/>
    <route id="B6B7_B7C7" edges="B6B7 B7C7"/>
    <rerouter id="rr_B6B7" edges="B6B7">
        <interval begin="0" end="600">
            <routeProbReroute id="B6B7_B7A1" probability="20.0"/>
            <routeProbReroute id="B6B7_B7B1" probability="20.0"/>
            <routeProbReroute id="B6B7_B7B6" probability="0"/>
            <routeProbReroute id="B6B7_B7C7" probability="30.0"/>
        </interval>
    </rerouter>
    <route id="C7B7_B7A1" edges="C7B7 B7A1"/>
    <route id="C7B7_B7B1" edges="C7B7 B7B1"/>
    <route id="C7B7_B7B6" edges="C7B7 B7B6"/>
    <route id="C7B7_B7C7" edges="C7B7 B7C7"/>
    <rerouter id="rr_C7B7" edges="C7B7">
        <interval begin="0" end="600">
            <routeProbReroute id="C7B7_B7A1" probability="50.0"/>
            <routeProbReroute id="C7B7_B7B1" probability="30.0"/>
            <routeProbReroute id="C7B7_B7B6" probability="20.0"/>
            <routeProbReroute id="C7B7_B7C7" probability="0"/>
        </interval>
    </rerouter>
    <route id="B1C1_C1B1" edges="B1C1 C1B1"/>
    <route id="B1C1_C1C2" edges="B1C1 C1C2"/>
    <route id="B1C1_C1C7" edges="B1C1 C1C7"/>
    <route id="B1C1_C1D1" edges="B1C1 C1D1"/>
    <rerouter id="rr_B1C1" edges="B1C1">
        <interval begin="0" end="600">
            <routeProbReroute id="B1C1_C1B1" probability="0"/>
            <routeProbReroute id="B1C1_C1C2" probability="20.0"/>
            <routeProbReroute id="B1C1_C1C7" probability="30.0"/>
            <routeProbReroute id="B1C1_C1D1" probability="50.0"/>
        </interval>
    </rerouter>
    <route id="C2C1_C1B1" edges="C2C1 C1B1"/>
    <route id="C2C1_C1C2" edges="C2C1 C1C2"/>
    <route id="C2C1_C1C7" edges="C2C1 C1C7"/>
    <route id="C2C1_C1D1" edges="C2C1 C1D1"/>
    <rerouter id="rr_C2C1" edges="C2C1">
        <interval begin="0" end="600">
            <routeProbReroute id="C2C1_C1B1" probability="30.0"/>
            <routeProbReroute id="C2C1_C1C2" probability="0"/>
            <routeProbReroute id="C2C1_C1C7" probability="30.0"/>
            <routeProbReroute id="C2C1_C1D1" probability="20.0"/>
        </interval>
    </rerouter>
    <route id="C7C1_C1B1" edges="C7C1 C1B1"/>
    <route id="C7C1_C1C2" edges="C7C1 C1C2"/>
    <route id="C7C1_C1C7" edges="C7C1 C1C7"/>
    <route id="C7C1_C1D1" edges="C7C1 C1D1"/>
    <rerouter id="rr_C7C1" edges="C7C1">
        <interval begin="0" end="600">
            <routeProbReroute id="C7C1_C1B1" probability="20.0"/>
            <routeProbReroute id="C7C1_C1C2" probability="20.0"/>
            <routeProbReroute id="C7C1_C1C7" probability="0"/>
            <routeProbReroute id="C7C1_C1D1" probability="30.0"/>
        </interval>
    </rerouter>
    <route id="D1C1_C1B1" edges="D1C1 C1B1"/>
    <route id="D1C1_C1C2" edges="D1C1 C1C2"/>
    <route id="D1C1_C1C7" edges="D1C1 C1C7"/>
    <route id="D1C1_C1D1" edges="D1C1 C1D1"/>
    <rerouter id="rr_D1C1" edges="D1C1">
        <interval begin="0" end="600">
            <routeProbReroute id="D1C1_C1B1" probability="50.0"/>
            <routeProbReroute id="D1C1_C1C2" probability="30.0"/>
            <routeProbReroute id="D1C1_C1C7" probability="20.0"/>
            <routeProbReroute id="D1C1_C1D1" probability="0"/>
        </interval>
    </rerouter>
    <route id="B2C2_C2B2" edges="B2C2 C2B2"/>
    <route id="B2C2_C2C1" edges="B2C2 C2C1"/>
    <route id="B2C2_C2C3" edges="B2C2 C2C3"/>
    <route id="B2C2_C2D2" edges="B2C2 C2D2"/>
    <rerouter id="rr_B2C2" edges="B2C2">
        <interval begin="0" end="600">
            <routeProbReroute id="B2C2_C2B2" probability="0"/>
            <routeProbReroute id="B2C2_C2C1" probability="30.0"/>
            <routeProbReroute id="B2C2_C2C3" probability="20.0"/>
            <routeProbReroute id="B2C2_C2D2" probability="50.0"/>
        </interval>
    </rerouter>
    <route id="C1C2_C2B2" edges="C1C2 C2B2"/>
    <route id="C1C2_C2C1" edges="C1C2 C2C1"/>
    <route id="C1C2_C2C3" edges="C1C2 C2C3"/>
    <route id="C1C2_C2D2" edges="C1C2 C2D2"/>
    <rerouter id="rr_C1C2" edges="C1C2">
        <interval begin="0" end="600">
            <routeProbReroute id="C1C2_C2B2" probability="20.0"/>
            <routeProbReroute id="C1C2_C2C1" probability="0"/>
            <routeProbReroute id="C1C2_C2C3" probability="20.0"/>
            <routeProbReroute id="C1C2_C2D2" probability="30.0"/>
        </interval>
    </rerouter>
    <route id="C3C2_C2B2" edges="C3C2 C2B2"/>
    <route id="C3C2_C2C1" edges="C3C2 C2C1"/>
    <route id="C3C2_C2C3" edges="C3C2 C2C3"/>
    <route id="C3C2_C2D2" edges="C3C2 C2D2"/>
    <rerouter id="rr_C3C2" edges="C3C2">
        <interval begin="0" end="600">
            <routeProbReroute id="C3C2_C2B2" probability="30.0"/>
            <routeProbReroute id="C3C2_C2C1" probability="30.0"/>
            <routeProbReroute id="C3C2_C2C3" probability="0"/>
            <routeProbReroute id="C3C2_C2D2" probability="20.0"/>
        </interval>
    </rerouter>
    <route id="D2C2_C2B2" edges="D2C2 C2B2"/>
    <route id="D2C2_C2C1" edges="D2C2 C2C1"/>
    <route id="D2C2_C2C3" edges="D2C2 C2C3"/>
    <route id="D2C2_C2D2" edges="D2C2 C2D2"/>
    <rerouter id="rr_D2C2" edges="D2C2">
        <interval begin="0" end="600">
            <routeProbReroute id="D2C2_C2B2" probability="50.0"/>
            <routeProbReroute id="D2C2_C2C1" probability="20.0"/>
            <routeProbReroute id="D2C2_C2C3" probability="30.0"/>
            <routeProbReroute id="D2C2_C2D2" probability="0"/>
        </interval>
    </rerouter>
    <route id="B3C3_C3B3" edges="B3C3 C3B3"/>
    <route id="B3C3_C3C2" edges="B3C3 C3C2"/>
    <route id="B3C3_C3C4" edges="B3C3 C3C4"/>
    <route id="B3C3_C3D3" edges="B3C3 C3D3"/>
    <rerouter id="rr_B3C3" edges="B3C3">
        <interval begin="0" end="600">
            <routeProbReroute id="B3C3_C3B3" probability="0"/>
            <routeProbReroute id="B3C3_C3C2" probability="30.0"/>
            <routeProbReroute id="B3C3_C3C4" probability="20.0"/>
            <routeProbReroute id="B3C3_C3D3" probability="50.0"/>
        </interval>
    </rerouter>
    <route id="C2C3_C3B3" edges="C2C3 C3B3"/>
    <route id="C2C3_C3C2" edges="C2C3 C3C2"/>
    <route id="C2C3_C3C4" edges="C2C3 C3C4"/>
    <route id="C2C3_C3D3" edges="C2C3 C3D3"/>
    <rerouter id="rr_C2C3" edges="C2C3">
        <interval begin="0" end="600">
            <routeProbReroute id="C2C3_C3B3" probability="20.0"/>
            <routeProbReroute id="C2C3_C3C2" probability="0"/>
            <routeProbReroute id="C2C3_C3C4" probability="20.0"/>
            <routeProbReroute id="C2C3_C3D3" probability="30.0"/>
        </interval>
    </rerouter>
    <route id="C4C3_C3B3" edges="C4C3 C3B3"/>
    <route id="C4C3_C3C2" edges="C4C3 C3C2"/>
    <route id="C4C3_C3C4" edges="C4C3 C3C4"/>
    <route id="C4C3_C3D3" edges="C4C3 C3D3"/>
    <rerouter id="rr_C4C3" edges="C4C3">
        <interval begin="0" end="600">
            <routeProbReroute id="C4C3_C3B3" probability="30.0"/>
            <routeProbReroute id="C4C3_C3C2" probability="30.0"/>
            <routeProbReroute id="C4C3_C3C4" probability="0"/>
            <routeProbReroute id="C4C3_C3D3" probability="20.0"/>
        </interval>
    </rerouter>
    <route id="D3C3_C3B3" edges="D3C3 C3B3"/>
    <route id="D3C3_C3C2" edges="D3C3 C3C2"/>
    <route id="D3C3_C3C4" edges="D3C3 C3C4"/>
    <route id="D3C3_C3D3" edges="D3C3 C3D3"/>
    <rerouter id="rr_D3C3" edges="D3C3">
        <interval begin="0" end="600">
            <routeProbReroute id="D3C3_C3B3" probability="50.0"/>
            <routeProbReroute id="D3C3_C3C2" probability="20.0"/>
            <routeProbReroute id="D3C3_C3C4" probability="30.0"/>
            <routeProbReroute id="D3C3_C3D3" probability="0"/>
        </interval>
    </rerouter>
    <route id="B4C4_C4B4" edges="B4C4 C4B4"/>
    <route id="B4C4_C4C3" edges="B4C4 C4C3"/>
    <route id="B4C4_C4C5" edges="B4C4 C4C5"/>
    <route id="B4C4_C4D4" edges="B4C4 C4D4"/>
    <rerouter id="rr_B4C4" edges="B4C4">
        <interval begin="0" end="600">
            <routeProbReroute id="B4C4_C4B4" probability="0"/>
            <routeProbReroute id="B4C4_C4C3" probability="30.0"/>
            <routeProbReroute id="B4C4_C4C5" probability="20.0"/>
            <routeProbReroute id="B4C4_C4D4" probability="50.0"/>
        </interval>
    </rerouter>
    <route id="C3C4_C4B4" edges="C3C4 C4B4"/>
    <route id="C3C4_C4C3" edges="C3C4 C4C3"/>
    <route id="C3C4_C4C5" edges="C3C4 C4C5"/>
    <route id="C3C4_C4D4" edges="C3C4 C4D4"/>
    <rerouter id="rr_C3C4" edges="C3C4">
        <interval begin="0" end="600">
            <routeProbReroute id="C3C4_C4B4" probability="20.0"/>