<?xml version="1.0" encoding="UTF-8"?>

<!-- generated on 11/23/21 14:42:16 by Eclipse SUMO netgenerate Version 1.7.0
<configuration xmlns:xsi="http://www.w3.org/2001/XMLSchema-instance" xsi:noNamespaceSchemaLocation="http://sumo.dlr.de/xsd/netgenerateConfiguration.xsd">

    <spider_network>
        <spider value="true"/>
        <spider.arm-number value="7"/>
        <spider.circle-number value="3"/>
        <spider.space-radius value="100"/>
    </spider_network>

    <output>
        <output-file value="spider.net.xml"/>
    </output>

</configuration>
-->

<net version="1.6" junctionCornerDetail="5" limitTurnSpeed="5.50" xmlns:xsi="http://www.w3.org/2001/XMLSchema-instance" xsi:noNamespaceSchemaLocation="http://sumo.dlr.de/xsd/net_file.xsd">

    <location netOffset="270.29,292.48" convBoundary="0.00,0.00,570.29,584.96" origBoundary="-270.29,-292.48,300.00,292.48" projParameter="!"/>

    <edge id=":A1_0" function="internal">
        <lane id=":A1_0_0" index="0" speed="5.54" length="9.46" shape="275.68,301.80 273.58,299.74 271.85,299.29 270.48,300.45 269.48,303.21"/>
    </edge>
    <edge id=":A1_1" function="internal">
        <lane id=":A1_1_0" index="0" speed="9.25" length="16.00" shape="275.68,301.80 272.59,298.85 269.19,297.32 265.45,297.22 261.39,298.54"/>
    </edge>
    <edge id=":A1_2" function="internal">
        <lane id=":A1_2_0" index="0" speed="13.89" length="20.14" shape="275.68,301.80 272.55,298.50 268.36,294.90 263.92,291.62 260.01,289.30"/>
    </edge>
    <edge id=":A1_3" function="internal">
        <lane id=":A1_3_0" index="0" speed="13.89" length="21.56" shape="275.68,301.80 273.06,297.81 270.27,292.49 267.85,286.99 266.36,282.46"/>
    </edge>
    <edge id=":A1_4" function="internal">
        <lane id=":A1_4_0" index="0" speed="10.38" length="20.36" shape="275.68,301.80 272.89,297.14 271.96,292.48 272.89,287.82 275.68,283.16"/>
    </edge>
    <edge id=":A1_5" function="internal">
        <lane id=":A1_5_0" index="0" speed="6.53" length="13.76" shape="275.68,301.80 274.87,298.76 275.85,295.15 278.06,292.14 280.94,290.88"/>
    </edge>
    <edge id=":A1_6" function="internal">
        <lane id=":A1_6_0" index="0" speed="3.65" length="4.67" shape="275.68,301.80 275.55,300.36 275.93,299.55 276.80,299.36 278.18,299.80"/>
    </edge>
    <edge id=":A1_7" function="internal">
        <lane id=":A1_7_0" index="0" speed="5.54" length="9.46" shape="280.94,294.08 278.02,294.44 276.59,295.51 276.64,297.30 278.18,299.80"/>
    </edge>
    <edge id=":A1_8" function="internal">
        <lane id=":A1_8_0" index="0" speed="9.25" length="16.00" shape="280.94,294.08 276.71,294.65 273.39,296.36 270.98,299.22 269.48,303.21"/>
    </edge>
    <edge id=":A1_9" function="internal">
        <lane id=":A1_9_0" index="0" speed="13.89" length="20.14" shape="280.94,294.08 276.41,294.47 270.98,295.49 265.64,296.93 261.39,298.54"/>
    </edge>
    <edge id=":A1_10" function="internal">
        <lane id=":A1_10_0" index="0" speed="13.89" length="21.56" shape="280.94,294.08 276.19,293.64 270.28,292.50 264.47,290.96 260.01,289.30"/>
    </edge>
    <edge id=":A1_11" function="internal">
        <lane id=":A1_11_0" index="0" speed="10.38" length="20.36" shape="280.94,294.08 275.55,293.35 271.33,291.17 268.27,287.54 266.36,282.46"/>
    </edge>
    <edge id=":A1_12" function="internal">
        <lane id=":A1_12_0" index="0" speed="6.53" length="13.76" shape="280.94,294.08 278.06,292.82 275.85,289.80 274.87,286.20 275.68,283.16"/>
    </edge>
    <edge id=":A1_13" function="internal">
        <lane id=":A1_13_0" index="0" speed="3.65" length="4.67" shape="280.94,294.08 279.74,293.28 279.34,292.48 279.74,291.68 280.94,290.88"/>
    </edge>
    <edge id=":A1_14" function="internal">
        <lane id=":A1_14_0" index="0" speed="5.54" length="9.46" shape="278.18,285.15 276.64,287.66 276.59,289.45 278.02,290.52 280.94,290.88"/>
    </edge>
    <edge id=":A1_15" function="internal">
        <lane id=":A1_15_0" index="0" speed="9.25" length="16.00" shape="278.18,285.15 275.99,288.82 275.26,292.48 275.99,296.14 278.18,299.80"/>
    </edge>
    <edge id=":A1_16" function="internal">
        <lane id=":A1_16_0" index="0" speed="13.89" length="20.14" shape="278.18,285.15 275.66,288.94 273.08,293.82 270.87,298.88 269.48,303.21"/>
    </edge>
    <edge id=":A1_17" function="internal">
        <lane id=":A1_17_0" index="0" speed="13.89" length="21.56" shape="278.18,285.15 274.87,288.59 270.31,292.50 265.48,296.08 261.39,298.54"/>
    </edge>
    <edge id=":A1_18" function="internal">
        <lane id=":A1_18_0" index="0" speed="10.38" length="20.36" shape="278.18,285.15 274.26,288.91 269.92,290.85 265.17,290.98 260.01,289.30"/>
    </edge>
    <edge id=":A1_19" function="internal">
        <lane id=":A1_19_0" index="0" speed="6.53" length="13.76" shape="278.18,285.15 275.40,286.62 271.66,286.47 268.23,284.98 266.36,282.46"/>
    </edge>
    <edge id=":A1_20" function="internal">
        <lane id=":A1_20_0" index="0" speed="3.65" length="4.67" shape="278.18,285.15 276.80,285.59 275.93,285.41 275.55,284.60 275.68,283.16"/>
    </edge>
    <edge id=":A1_21" function="internal">
        <lane id=":A1_21_0" index="0" speed="5.54" length="9.46" shape="269.48,281.74 270.48,284.51 271.85,285.67 273.58,285.22 275.68,283.16"/>
    </edge>
    <edge id=":A1_22" function="internal">
        <lane id=":A1_22_0" index="0" speed="9.25" length="16.00" shape="269.48,281.74 270.98,285.74 273.39,288.59 276.71,290.31 280.94,290.88"/>
    </edge>
    <edge id=":A1_23" function="internal">
        <lane id=":A1_23_0" index="0" speed="13.89" length="20.14" shape="269.48,281.74 270.87,286.07 273.08,291.14 275.66,296.02 278.18,299.80"/>
    </edge>
    <edge id=":A1_24" function="internal">
        <lane id=":A1_24_0" index="0" speed="13.89" length="21.56" shape="269.48,281.74 270.11,286.47 270.32,292.48 270.11,298.49 269.48,303.21"/>
    </edge>
    <edge id=":A1_25" function="internal">
        <lane id=":A1_25_0" index="0" speed="10.38" length="20.36" shape="269.48,281.74 269.97,287.15 268.79,291.75 265.93,295.55 261.39,298.54"/>
    </edge>
    <edge id=":A1_26" function="internal">
        <lane id=":A1_26_0" index="0" speed="6.53" length="13.76" shape="269.48,281.74 268.89,284.83 266.45,287.66 263.15,289.41 260.01,289.30"/>
    </edge>
    <edge id=":A1_27" function="internal">
        <lane id=":A1_27_0" index="0" speed="3.65" length="4.67" shape="269.48,281.74 268.97,283.09 268.28,283.66 267.41,283.45 266.36,282.46"/>
    </edge>
    <edge id=":A1_28" function="internal">
        <lane id=":A1_28_0" index="0" speed="5.54" length="9.46" shape="261.39,286.42 264.18,287.36 265.93,287.02 266.66,285.38 266.36,282.46"/>
    </edge>
    <edge id=":A1_29" function="internal">
        <lane id=":A1_29_0" index="0" speed="9.25" length="16.00" shape="261.39,286.42 265.45,287.74 269.19,287.64 272.59,286.11 275.68,283.16"/>
    </edge>
    <edge id=":A1_30" function="internal">
        <lane id=":A1_30_0" index="0" speed="13.89" length="20.14" shape="261.39,286.42 265.64,288.03 270.98,289.46 276.41,290.49 280.94,290.88"/>
    </edge>
    <edge id=":A1_31" function="internal">
        <lane id=":A1_31_0" index="0" speed="13.89" length="21.56" shape="261.39,286.42 265.48,288.88 270.31,292.46 274.87,296.37 278.18,299.80"/>
    </edge>
    <edge id=":A1_32" function="internal">
        <lane id=":A1_32_0" index="0" speed="10.38" length="20.36" shape="261.39,286.42 265.93,289.41 268.79,293.20 269.97,297.80 269.48,303.21"/>
    </edge>
    <edge id=":A1_33" function="internal">
        <lane id=":A1_33_0" index="0" speed="6.53" length="13.76" shape="261.39,286.42 263.44,288.81 264.12,292.48 263.44,296.15 261.39,298.54"/>
    </edge>
    <edge id=":A1_34" function="internal">
        <lane id=":A1_34_0" index="0" speed="3.65" length="4.67" shape="261.39,286.42 262.13,287.66 262.14,288.55 261.43,289.10 260.01,289.30"/>
    </edge>
    <edge id=":A1_35" function="internal">
        <lane id=":A1_35_0" index="0" speed="5.54" length="9.46" shape="260.01,295.66 262.48,294.07 263.30,292.48 262.48,290.89 260.01,289.30"/>
    </edge>
    <edge id=":A1_36" function="internal">
        <lane id=":A1_36_0" index="0" speed="9.25" length="16.00" shape="260.01,295.66 263.57,293.31 265.82,290.32 266.75,286.71 266.36,282.46"/>
    </edge>
    <edge id=":A1_37" function="internal">
        <lane id=":A1_37_0" index="0" speed="13.89" length="20.14" shape="260.01,295.66 263.92,293.34 268.36,290.06 272.55,286.46 275.68,283.16"/>
    </edge>
    <edge id=":A1_38" function="internal">
        <lane id=":A1_38_0" index="0" speed="13.89" length="21.56" shape="260.01,295.66 264.47,293.99 270.28,292.45 276.19,291.32 280.94,290.88"/>
    </edge>
    <edge id=":A1_39" function="internal">
        <lane id=":A1_39_0" index="0" speed="10.38" length="20.36" shape="260.01,295.66 265.17,293.98 269.92,294.11 274.26,296.05 278.18,299.80"/>
    </edge>
    <edge id=":A1_40" function="internal">
        <lane id=":A1_40_0" index="0" speed="6.53" length="13.76" shape="260.01,295.66 263.15,295.54 266.45,297.30 268.89,300.12 269.48,303.21"/>
    </edge>
    <edge id=":A1_41" function="internal">
        <lane id=":A1_41_0" index="0" speed="3.65" length="4.67" shape="260.01,295.66 261.43,295.86 262.14,296.40 262.13,297.30 261.39,298.54"/>
    </edge>
    <edge id=":A1_42" function="internal">
        <lane id=":A1_42_0" index="0" speed="5.54" length="9.46" shape="266.36,302.50 266.66,299.58 265.93,297.94 264.18,297.59 261.39,298.54"/>
    </edge>
    <edge id=":A1_43" function="internal">
        <lane id=":A1_43_0" index="0" speed="9.25" length="16.00" shape="266.36,302.50 266.75,298.25 265.82,294.63 263.57,291.65 260.01,289.30"/>
    </edge>
    <edge id=":A1_44" function="internal">
        <lane id=":A1_44_0" index="0" speed="13.89" length="20.14" shape="266.36,302.50 266.99,298.00 267.20,292.48 266.99,286.96 266.36,282.46"/>
    </edge>
    <edge id=":A1_45" function="internal">
        <lane id=":A1_45_0" index="0" speed="13.89" length="21.56" shape="266.36,302.50 267.85,297.97 270.27,292.47 273.06,287.14 275.68,283.16"/>
    </edge>
    <edge id=":A1_46" function="internal">
        <lane id=":A1_46_0" index="0" speed="10.38" length="20.36" shape="266.36,302.50 268.27,297.42 271.33,293.78 275.55,291.60 280.94,290.88"/>
    </edge>
    <edge id=":A1_47" function="internal">
        <lane id=":A1_47_0" index="0" speed="6.53" length="13.76" shape="266.36,302.50 268.23,299.97 271.66,298.49 275.40,298.34 278.18,299.80"/>
    </edge>
    <edge id=":A1_48" function="internal">
        <lane id=":A1_48_0" index="0" speed="3.65" length="4.67" shape="266.36,302.50 267.41,301.51 268.28,301.30 268.97,301.86 269.48,303.21"/>
    </edge>
    <edge id=":B1_0" function="internal">
        <lane id=":B1_0_0" index="0" speed="8.94" length="11.80" shape="376.30,294.08 373.89,294.53 371.67,295.90 369.64,298.18 367.79,301.36"/>
    </edge>
    <edge id=":B1_1" function="internal">
        <lane id=":B1_1_0" index="0" speed="13.89" length="15.10" shape="376.30,294.08 361.20,294.08"/>
    </edge>
    <edge id=":B1_2" function="internal">
        <lane id=":B1_2_0" index="0" speed="10.14" length="5.49" shape="376.30,294.08 372.96,293.51 371.14,292.48"/>
    </edge>
    <edge id=":B1_3" function="internal">
        <lane id=":B1_3_0" index="0" speed="3.65" length="2.34" shape="376.30,294.08 375.10,293.28 374.70,292.48"/>
    </edge>
    <edge id=":B1_16" function="internal">
        <lane id=":B1_16_0" index="0" speed="10.14" length="9.90" shape="371.14,292.48 369.94,291.80 367.26,288.96 364.90,284.98"/>
    </edge>
    <edge id=":B1_17" function="internal">
        <lane id=":B1_17_0" index="0" speed="3.65" length="2.34" shape="374.70,292.48 375.10,291.68 376.30,290.88"/>
    </edge>
    <edge id=":B1_4" function="internal">
        <lane id=":B1_4_0" index="0" speed="8.94" length="11.80" shape="367.79,283.59 369.64,286.78 371.67,289.06 373.89,290.42 376.30,290.88"/>
    </edge>
    <edge id=":B1_5" function="internal">
        <lane id=":B1_5_0" index="0" speed="12.79" length="18.40" shape="367.79,283.59 369.39,288.04 369.93,292.48 369.39,296.92 367.79,301.36"/>
    </edge>
    <edge id=":B1_6" function="internal">
        <lane id=":B1_6_0" index="0" speed="7.44" length="16.31" shape="367.79,283.59 369.27,288.18 368.66,291.46 365.97,293.42 361.20,294.08"/>
    </edge>
    <edge id=":B1_7" function="internal">
        <lane id=":B1_7_0" index="0" speed="3.65" length="4.67" shape="367.79,283.59 367.59,285.02 367.04,285.73 366.15,285.71 364.90,284.98"/>
    </edge>
    <edge id=":B1_8" function="internal">
        <lane id=":B1_8_0" index="0" speed="5.75" length="9.17" shape="361.20,290.88 363.88,290.51 365.40,289.40 365.74,287.56 364.90,284.98"/>
    </edge>
    <edge id=":B1_9" function="internal">
        <lane id=":B1_9_0" index="0" speed="13.89" length="15.10" shape="361.20,290.88 376.30,290.88"/>
    </edge>
    <edge id=":B1_10" function="internal">
        <lane id=":B1_10_0" index="0" speed="7.44" length="6.42" shape="361.20,290.88 365.97,291.53 367.27,292.48"/>
    </edge>
    <edge id=":B1_11" function="internal">
        <lane id=":B1_11_0" index="0" speed="3.65" length="2.34" shape="361.20,290.88 362.40,291.68 362.80,292.48"/>
    </edge>
    <edge id=":B1_18" function="internal">
        <lane id=":B1_18_0" index="0" speed="7.44" length="9.88" shape="367.27,292.48 368.66,293.50 369.27,296.78 367.79,301.36"/>
    </edge>
    <edge id=":B1_19" function="internal">
        <lane id=":B1_19_0" index="0" speed="3.65" length="2.34" shape="362.80,292.48 362.40,293.28 361.20,294.08"/>
    </edge>
    <edge id=":B1_12" function="internal">
        <lane id=":B1_12_0" index="0" speed="5.75" length="9.17" shape="364.90,299.98 365.74,297.40 365.40,295.55 363.88,294.45 361.20,294.08"/>
    </edge>
    <edge id=":B1_13" function="internal">
        <lane id=":B1_13_0" index="0" speed="11.78" length="15.52" shape="364.90,299.98 366.26,296.23 366.71,292.48 366.26,288.73 364.90,284.98"/>
    </edge>
    <edge id=":B1_14" function="internal">
        <lane id=":B1_14_0" index="0" speed="10.14" length="15.39" shape="364.90,299.98 367.26,296.00 369.94,293.15 372.96,291.45 376.30,290.88"/>
    </edge>
    <edge id=":B1_15" function="internal">
        <lane id=":B1_15_0" index="0" speed="3.65" length="4.67" shape="364.90,299.98 366.15,299.24 367.04,299.23 367.59,299.94 367.79,301.36"/>
    </edge>
    <edge id=":B2_0" function="internal">
        <lane id=":B2_0_0" index="0" speed="8.94" length="11.80" shape="335.14,376.36 333.28,374.76 330.82,373.87 327.78,373.70 324.13,374.24"/>
    </edge>
    <edge id=":B2_1" function="internal">
        <lane id=":B2_1_0" index="0" speed="13.89" length="15.10" shape="335.14,376.36 325.72,364.55"/>
    </edge>
    <edge id=":B2_2" function="internal">
        <lane id=":B2_2_0" index="0" speed="10.14" length="5.49" shape="335.14,376.36 333.50,373.39 333.17,371.32"/>
    </edge>
    <edge id=":B2_3" function="internal">
        <lane id=":B2_3_0" index="0" speed="3.65" length="2.34" shape="335.14,376.36 335.01,374.92 335.39,374.11"/>
    </edge>
    <edge id=":B2_16" function="internal">
        <lane id=":B2_16_0" index="0" speed="10.14" length="9.90" shape="333.17,371.32 332.95,369.97 333.50,366.10 335.14,361.78"/>
    </edge>
    <edge id=":B2_17" function="internal">
        <lane id=":B2_17_0" index="0" speed="3.65" length="2.34" shape="335.39,374.11 336.26,373.92 337.64,374.36"/>
    </edge>
    <edge id=":B2_4" function="internal">
        <lane id=":B2_4_0" index="0" speed="8.94" length="11.80" shape="338.03,363.16 336.69,366.60 336.17,369.61 336.49,372.20 337.64,374.36"/>
    </edge>
    <edge id=":B2_5" function="internal">
        <lane id=":B2_5_0" index="0" speed="12.79" length="18.40" shape="338.03,363.16 335.55,367.19 332.41,370.38 328.61,372.73 324.13,374.24"/>
    </edge>
    <edge id=":B2_6" function="internal">
        <lane id=":B2_6_0" index="0" speed="7.44" length="16.31" shape="338.03,363.16 335.36,367.18 332.42,368.75 329.21,367.88 325.72,364.55"/>
    </edge>
    <edge id=":B2_7" function="internal">
        <lane id=":B2_7_0" index="0" speed="3.65" length="4.67" shape="338.03,363.16 336.78,363.90 335.89,363.91 335.34,363.20 335.14,361.78"/>
    </edge>
    <edge id=":B2_8" function="internal">
        <lane id=":B2_8_0" index="0" speed="5.75" length="9.17" shape="328.22,362.55 330.18,364.43 331.99,364.92 333.65,364.04 335.14,361.78"/>
    </edge>
    <edge id=":B2_9" function="internal">
        <lane id=":B2_9_0" index="0" speed="13.89" length="15.10" shape="328.22,362.55 337.64,374.36"/>
    </edge>
    <edge id=":B2_10" function="internal">
        <lane id=":B2_10_0" index="0" speed="7.44" length="6.42" shape="328.22,362.55 330.69,366.70 330.75,368.30"/>
    </edge>
    <edge id=":B2_11" function="internal">
        <lane id=":B2_11_0" index="0" speed="3.65" length="2.34" shape="328.22,362.55 328.34,363.99 327.97,364.80"/>
    </edge>
    <edge id=":B2_18" function="internal">
        <lane id=":B2_18_0" index="0" speed="7.44" length="9.88" shape="330.75,368.30 330.83,370.03 328.64,372.54 324.13,374.24"/>
    </edge>
    <edge id=":B2_19" function="internal">
        <lane id=":B2_19_0" index="0" speed="3.65" length="2.34" shape="327.97,364.80 327.09,364.99 325.72,364.55"/>
    </edge>
    <edge id=":B2_12" function="internal">
        <lane id=":B2_12_0" index="0" speed="5.75" length="9.17" shape="323.42,371.12 325.96,370.17 327.19,368.75 327.11,366.88 325.72,364.55"/>
    </edge>
    <edge id=":B2_13" function="internal">
        <lane id=":B2_13_0" index="0" speed="11.78" length="15.52" shape="323.42,371.12 327.19,369.85 330.41,367.86 333.06,365.17 335.14,361.78"/>
    </edge>
    <edge id=":B2_14" function="internal">
        <lane id=":B2_14_0" index="0" speed="10.14" length="15.39" shape="323.42,371.12 328.00,370.48 331.90,370.81 335.11,372.10 337.64,374.36"/>
    </edge>
    <edge id=":B2_15" function="internal">
        <lane id=":B2_15_0" index="0" speed="3.65" length="4.67" shape="323.42,371.12 324.77,371.64 325.33,372.33 325.12,373.20 324.13,374.24"/>
    </edge>
    <edge id=":B3_0" function="internal">
        <lane id=":B3_0_0" index="0" speed="8.94" length="11.80" shape="257.26,389.51 253.74,390.60 251.07,392.08 249.24,393.94 248.26,396.19"/>
    </edge>
    <edge id=":B3_1" function="internal">
        <lane id=":B3_1_0" index="0" speed="12.79" length="18.40" shape="257.26,389.51 252.57,390.08 248.12,389.62 243.91,388.11 239.93,385.55"/>
    </edge>
    <edge id=":B3_2" function="internal">
        <lane id=":B3_2_0" index="0" speed="7.44" length="16.31" shape="257.26,389.51 252.46,389.93 249.40,388.61 248.08,385.55 248.50,380.75"/>
    </edge>
    <edge id=":B3_3" function="internal">
        <lane id=":B3_3_0" index="0" speed="3.65" length="4.67" shape="257.26,389.51 255.91,388.99 255.34,388.30 255.56,387.43 256.55,386.39"/>
    </edge>
    <edge id=":B3_4" function="internal">
        <lane id=":B3_4_0" index="0" speed="5.75" length="9.17" shape="251.62,381.46 251.38,384.16 252.12,385.88 253.85,386.63 256.55,386.39"/>
    </edge>
    <edge id=":B3_5" function="internal">
        <lane id=":B3_5_0" index="0" speed="13.89" length="15.10" shape="251.62,381.46 248.26,396.19"/>
    </edge>
    <edge id=":B3_6" function="internal">
        <lane id=":B3_6_0" index="0" speed="7.44" length="6.42" shape="251.62,381.46 249.92,385.97 248.71,387.02"/>
    </edge>
    <edge id=":B3_7" function="internal">
        <lane id=":B3_7_0" index="0" speed="3.65" length="2.34" shape="251.62,381.46 250.57,382.45 249.71,382.67"/>
    </edge>
    <edge id=":B3_16" function="internal">
        <lane id=":B3_16_0" index="0" speed="7.44" length="9.88" shape="248.71,387.02 247.40,388.16 244.08,388.02 239.93,385.55"/>
    </edge>
    <edge id=":B3_17" function="internal">
        <lane id=":B3_17_0" index="0" speed="3.65" length="2.34" shape="249.71,382.67 249.01,382.10 248.50,380.75"/>
    </edge>
    <edge id=":B3_8" function="internal">
        <lane id=":B3_8_0" index="0" speed="5.75" length="9.17" shape="241.93,383.05 244.26,384.44 246.13,384.52 247.54,383.29 248.50,380.75"/>
    </edge>
    <edge id=":B3_9" function="internal">
        <lane id=":B3_9_0" index="0" speed="11.78" length="15.52" shape="241.93,383.05 245.28,385.21 248.84,386.48 252.59,386.87 256.55,386.39"/>
    </edge>
    <edge id=":B3_10" function="internal">
        <lane id=":B3_10_0" index="0" speed="10.14" length="15.39" shape="241.93,383.05 245.28,386.23 247.46,389.48 248.45,392.80 248.26,396.19"/>
    </edge>
    <edge id=":B3_11" function="internal">
        <lane id=":B3_11_0" index="0" speed="3.65" length="4.67" shape="241.93,383.05 242.37,384.42 242.18,385.30 241.37,385.68 239.93,385.55"/>
    </edge>
    <edge id=":B3_12" function="internal">
        <lane id=":B3_12_0" index="0" speed="8.94" length="11.80" shape="245.14,395.48 245.23,393.03 244.40,390.55 242.63,388.06 239.93,385.55"/>
    </edge>
    <edge id=":B3_13" function="internal">
        <lane id=":B3_13_0" index="0" speed="13.89" length="15.10" shape="245.14,395.48 248.50,380.75"/>
    </edge>
    <edge id=":B3_14" function="internal">
        <lane id=":B3_14_0" index="0" speed="10.14" length="5.49" shape="245.14,395.48 246.44,392.34 247.85,390.80"/>
    </edge>
    <edge id=":B3_15" function="internal">
        <lane id=":B3_15_0" index="0" speed="3.65" length="2.34" shape="245.14,395.48 246.19,394.48 247.06,394.27"/>
    </edge>
    <edge id=":B3_18" function="internal">
        <lane id=":B3_18_0" index="0" speed="10.14" length="9.90" shape="247.85,390.80 248.77,389.78 252.14,387.80 256.55,386.39"/>
    </edge>
    <edge id=":B3_19" function="internal">
        <lane id=":B3_19_0" index="0" speed="3.65" length="2.34" shape="247.06,394.27 247.75,394.84 248.26,396.19"/>
    </edge>
    <edge id=":B4_0" function="internal">
        <lane id=":B4_0_0" index="0" speed="8.94" length="11.80" shape="186.31,342.79 183.26,340.72 180.44,339.55 177.84,339.28 175.47,339.92"/>
    </edge>
    <edge id=":B4_1" function="internal">
        <lane id=":B4_1_0" index="0" speed="12.79" length="18.40" shape="186.31,342.79 182.93,339.48 180.52,335.71 179.08,331.47 178.59,326.77"/>
    </edge>
    <edge id=":B4_2" function="internal">
        <lane id=":B4_2_0" index="0" speed="7.44" length="16.31" shape="186.31,342.79 182.98,339.30 182.10,336.08 183.67,333.14 187.69,330.48"/>
    </edge>
    <edge id=":B4_3" function="internal">
        <lane id=":B4_3_0" index="0" speed="3.65" length="4.67" shape="186.31,342.79 185.87,341.41 186.05,340.54 186.86,340.16 188.30,340.29"/>
    </edge>
    <edge id=":B4_4" function="internal">
        <lane id=":B4_4_0" index="0" speed="5.75" length="9.17" shape="189.08,333.36 186.82,334.86 185.94,336.51 186.43,338.32 188.30,340.29"/>
    </edge>
    <edge id=":B4_5" function="internal">
        <lane id=":B4_5_0" index="0" speed="13.89" length="15.10" shape="189.08,333.36 175.47,339.92"/>
    </edge>
    <edge id=":B4_6" function="internal">
        <lane id=":B4_6_0" index="0" speed="7.44" length="6.42" shape="189.08,333.36 184.49,334.85 182.92,334.55"/>
    </edge>
    <edge id=":B4_7" function="internal">
        <lane id=":B4_7_0" index="0" speed="3.65" length="2.34" shape="189.08,333.36 187.65,333.16 186.94,332.62"/>
    </edge>
    <edge id=":B4_16" function="internal">
        <lane id=":B4_16_0" index="0" speed="7.44" length="9.88" shape="182.92,334.55 181.22,334.24 179.25,331.55 178.59,326.77"/>
    </edge>
    <edge id=":B4_17" function="internal">
        <lane id=":B4_17_0" index="0" speed="3.65" length="2.34" shape="186.94,332.62 186.96,331.72 187.69,330.48"/>
    </edge>
    <edge id=":B4_8" function="internal">
        <lane id=":B4_8_0" index="0" speed="5.75" length="9.17" shape="181.79,326.77 182.16,329.46 183.27,330.97 185.11,331.31 187.69,330.48"/>
    </edge>
    <edge id=":B4_9" function="internal">
        <lane id=":B4_9_0" index="0" speed="11.78" length="15.52" shape="181.79,326.77 182.20,330.74 183.42,334.31 185.45,337.49 188.30,340.29"/>
    </edge>
    <edge id=":B4_10" function="internal">
        <lane id=":B4_10_0" index="0" speed="10.14" length="15.39" shape="181.79,326.77 181.40,331.38 180.21,335.11 178.24,337.95 175.47,339.92"/>
    </edge>
    <edge id=":B4_11" function="internal">
        <lane id=":B4_11_0" index="0" speed="3.65" length="4.67" shape="181.79,326.77 180.99,327.97 180.19,328.37 179.39,327.97 178.59,326.77"/>
    </edge>
    <edge id=":B4_12" function="internal">
        <lane id=":B4_12_0" index="0" speed="8.94" length="11.80" shape="174.08,337.03 176.06,335.58 177.47,333.38 178.31,330.45 178.59,326.77"/>
    </edge>
    <edge id=":B4_13" function="internal">
        <lane id=":B4_13_0" index="0" speed="13.89" length="15.10" shape="174.08,337.03 187.69,330.48"/>
    </edge>
    <edge id=":B4_14" function="internal">
        <lane id=":B4_14_0" index="0" speed="10.14" length="5.49" shape="174.08,337.03 177.34,336.09 179.43,336.23"/>
    </edge>
    <edge id=":B4_15" function="internal">
        <lane id=":B4_15_0" index="0" speed="3.65" length="2.34" shape="174.08,337.03 175.51,337.23 176.22,337.78"/>
    </edge>
    <edge id=":B4_18" function="internal">
        <lane id=":B4_18_0" index="0" speed="10.14" length="9.90" shape="179.43,336.23 180.80,336.32 184.45,337.72 188.30,340.29"/>
    </edge>
    <edge id=":B4_19" function="internal">
        <lane id=":B4_19_0" index="0" speed="3.65" length="2.34" shape="176.22,337.78 176.21,338.67 175.47,339.92"/>
    </edge>
    <edge id=":B5_0" function="internal">
        <lane id=":B5_0_0" index="0" speed="8.94" length="11.80" shape="178.59,258.18 178.31,254.51 177.47,251.57 176.06,249.38 174.08,247.92"/>
    </edge>
    <edge id=":B5_1" function="internal">
        <lane id=":B5_1_0" index="0" speed="12.79" length="18.40" shape="178.59,258.18 179.08,253.48 180.52,249.25 182.93,245.48 186.31,242.17"/>
    </edge>
    <edge id=":B5_2" function="internal">
        <lane id=":B5_2_0" index="0" speed="7.44" length="16.31" shape="178.59,258.18 179.25,253.41 181.22,250.72 184.49,250.11 189.08,251.59"/>
    </edge>
    <edge id=":B5_3" function="internal">
        <lane id=":B5_3_0" index="0" speed="3.65" length="4.67" shape="178.59,258.18 179.39,256.98 180.19,256.58 180.99,256.98 181.79,258.18"/>
    </edge>
    <edge id=":B5_4" function="internal">
        <lane id=":B5_4_0" index="0" speed="5.75" length="9.17" shape="187.69,254.48 185.11,253.64 183.27,253.98 182.16,255.50 181.79,258.18"/>
    </edge>
    <edge id=":B5_5" function="internal">
        <lane id=":B5_5_0" index="0" speed="13.89" length="15.10" shape="187.69,254.48 174.08,247.92"/>
    </edge>
    <edge id=":B5_6" function="internal">
        <lane id=":B5_6_0" index="0" speed="7.44" length="6.42" shape="187.69,254.48 183.67,251.81 182.92,250.40"/>
    </edge>
    <edge id=":B5_7" function="internal">
        <lane id=":B5_7_0" index="0" speed="3.65" length="2.34" shape="187.69,254.48 186.96,253.24 186.94,252.34"/>
    </edge>
    <edge id=":B5_16" function="internal">
        <lane id=":B5_16_0" index="0" speed="7.44" length="9.88" shape="182.92,250.40 182.10,248.88 182.98,245.66 186.31,242.17"/>
    </edge>
    <edge id=":B5_17" function="internal">
        <lane id=":B5_17_0" index="0" speed="3.65" length="2.34" shape="186.94,252.34 187.65,251.79 189.08,251.59"/>
    </edge>
    <edge id=":B5_8" function="internal">
        <lane id=":B5_8_0" index="0" speed="5.75" length="9.17" shape="188.30,244.67 186.43,246.63 185.94,248.44 186.82,250.10 189.08,251.59"/>
    </edge>
    <edge id=":B5_9" function="internal">
        <lane id=":B5_9_0" index="0" speed="11.78" length="15.52" shape="188.30,244.67 185.45,247.46 183.42,250.64 182.20,254.22 181.79,258.18"/>
    </edge>
    <edge id=":B5_10" function="internal">
        <lane id=":B5_10_0" index="0" speed="10.14" length="15.39" shape="188.30,244.67 184.45,247.24 180.80,248.63 177.34,248.86 174.08,247.92"/>
    </edge>
    <edge id=":B5_11" function="internal">
        <lane id=":B5_11_0" index="0" speed="3.65" length="4.67" shape="188.30,244.67 186.86,244.79 186.05,244.42 185.87,243.54 186.31,242.17"/>
    </edge>
    <edge id=":B5_12" function="internal">
        <lane id=":B5_12_0" index="0" speed="8.94" length="11.80" shape="175.47,245.04 177.84,245.68 180.44,245.41 183.26,244.24 186.31,242.17"/>
    </edge>
    <edge id=":B5_13" function="internal">
        <lane id=":B5_13_0" index="0" speed="13.89" length="15.10" shape="175.47,245.04 189.08,251.59"/>
    </edge>
    <edge id=":B5_14" function="internal">
        <lane id=":B5_14_0" index="0" speed="10.14" length="5.49" shape="175.47,245.04 178.24,247.00 179.43,248.72"/>
    </edge>
    <edge id=":B5_15" function="internal">
        <lane id=":B5_15_0" index="0" speed="3.65" length="2.34" shape="175.47,245.04 176.21,246.28 176.22,247.18"/>
    </edge>
    <edge id=":B5_18" function="internal">
        <lane id=":B5_18_0" index="0" speed="10.14" length="9.90" shape="179.43,248.72 180.21,249.85 181.40,253.57 181.79,258.18"/>
    </edge>
    <edge id=":B5_19" function="internal">
        <lane id=":B5_19_0" index="0" speed="3.65" length="2.34" shape="176.22,247.18 175.51,247.72 174.08,247.92"/>
    </edge>
    <edge id=":B6_0" function="internal">
        <lane id=":B6_0_0" index="0" speed="5.75" length="9.17" shape="248.50,204.21 247.54,201.67 246.13,200.44 244.26,200.52 241.93,201.91"/>
    </edge>
    <edge id=":B6_1" function="internal">
        <lane id=":B6_1_0" index="0" speed="13.89" length="15.10" shape="248.50,204.21 245.14,189.48"/>
    </edge>
    <edge id=":B6_2" function="internal">
        <lane id=":B6_2_0" index="0" speed="7.44" length="6.42" shape="248.50,204.21 248.08,199.40 248.71,197.93"/>
    </edge>
    <edge id=":B6_3" function="internal">
        <lane id=":B6_3_0" index="0" speed="3.65" length="2.34" shape="248.50,204.21 249.01,202.86 249.71,202.29"/>