<?xml version="1.0" encoding="UTF-8"?>

<!-- generated on 11/23/21 14:42:16 by Eclipse SUMO jtrrouter Version 1.7.0
<configuration xmlns:xsi="http://www.w3.org/2001/XMLSchema-instance" xsi:noNamespaceSchemaLocation="http://sumo.dlr.de/xsd/jtrrouterConfiguration.xsd">

    <input>
        <net-file value="spider.net.xml"/>
        <route-files value="flows.xml"/>
    </input>

    <output>
        <output-file value="spider.rou.xml"/>
    </output>

    <processing>
        <no-internal-links value="true"/>
        <accept-all-destinations value="true"/>
    </processing>

    <time>
        <begin value="0"/>
        <end value="600"/>
    </time>

</configuration>
-->

<routes xmlns:xsi="http://www.w3.org/2001/XMLSchema-instance" xsi:noNamespaceSchemaLocation="http://sumo.dlr.de/xsd/routes_file.xsd">
    <vehicle id="0.0" depart="0.00">
        <route edges="C5C6 C6C5 C5D5 D5D4 D4D3 D3D2 D2C2 C2C1 C1C7 C7C6 C6D6 D6D5 D5D6 D6C6 C6B6 B6B5 B5B4 B4A1 A1B3"/>
    </vehicle>
    <vehicle id="1.0" depart="0.00">
        <route edges="B5A1 A1B1 B1B2 B2C2 C2D2 D2D3 D3C3 C3D3 D3D4 D4D3 D3D2 D2D1 D1C1 C1C2 C2C3 C3B3 B3B4 B4B3 B3A1 A1B7 B7C7 C7C6 C6B6 B6A1 A1B6 B6B5 B5B4 B4A1 A1B2 B2B1 B1C1 C1C7 C7D7 D7D1 D1D2 D2C2 C2C1 C1D1 D1D7 D7D6 D6D5 D5C5 C5D5 D5D4 D4D5 D5D6 D6D7 D7C7 C7B7 B7B6 B6C6 C6C5 C5C6 C6D6 D6C6 C6C7 C7C1 C1B1 B1A1 A1B3 B3B2 B2B3 B3C3"/>
    </vehicle>
    <vehicle id="2.0" depart="0.00">
        <route edges="C7C6 C6C5"/>
    </vehicle>
    <vehicle id="3.0" depart="0.00">
        <route edges="D4D5 D5D6 D6D7 D7C7 C7B7 B7B6 B6B5 B5B4 B4C4 C4C5 C5C6 C6C7 C7C6 C6B6 B6B7 B7C7 C7C1 C1B1 B1C1 C1D1 D1D2 D2C2 C2B2 B2C2 C2D2 D2D3 D3D4 D4C4 C4B4 B4B3 B3A1 A1B7 B7B1 B1A1"/>
    </vehicle>
    <vehicle id="4.0" depart="0.00">
        <route edges="C1B1 B1A1 A1B6 B6B5 B5C5 C5C4 C4C5 C5C6 C6C7 C7D7 D7D1 D1C1 C1D1 D1D2 D2D3 D3D2 D2C2 C2C1 C1C7 C7C6 C6C5 C5B5 B5B4 B4C4 C4D4 D4D3 D3D4 D4C4 C4C3 C3C4 C4B4 B4B5 B5A1 A1B4 B4B3 B3B4 B4A1 A1B7 B7B1 B1B2 B2B3 B3C3 C3D3 D3C3 C3B3 B3A1 A1B3"/>
    </vehicle>
    <vehicle id="5.0" depart="0.00">
        <route edges="B3C3 C3D3 D3D2 D2D3 D3C3 C3B3 B3B2 B2B1 B1B2 B2A1 A1B6 B6B7 B7B1 B1C1 C1C7 C7C6 C6C5 C5D5 D5D6 D6C6 C6D6 D6D5 D5D4 D4C4 C4C3 C3C2 C2B2 B2B3 B3B4 B4C4 C4B4 B4A1 A1B7 B7A1 A1B3 B3A1 A1B4 B4B5 B5C5 C5B5 B5A1 A1B2 B2C2 C2C1 C1D1 D1D7 D7D6 D6D7 D7C7 C7C1 C1C2 C2D2"/>
    </vehicle>
    <vehicle id="6.0" depart="0.00">
        <route edges="A1B3 B3B2"/>
    </vehicle>
    <vehicle id="7.0" depart="0.00">
        <route edges="C5D5 D5D6 D6D7 D7C7 C7C6 C6D6 D6C6 C6C7 C7B7 B7A1 A1B1 B1C1 C1C7 C7D7 D7D6 D6D5 D5D4 D4D5 D5C5 C5C4 C4C3 C3B3 B3A1 A1B5 B5C5 C5C6 C6C5 C5B5 B5A1 A1B4 B4C4 C4D4 D4D3 D3D2 D2C2 C2C3 C3D3 D3C3 C3C4"/>
    </vehicle>
    <vehicle id="8.0" depart="0.00">
        <route edges="B3C3 C3D3 D3D2 D2C2 C2C1 C1C7 C7D7 D7D1 D1C1 C1B1 B1B7 B7B6 B6B5 B5B4 B4B5 B5B6 B6C6 C6C5 C5C4 C4D4 D4D3 D3D4 D4C4 C4C3 C3B3 B3B2 B2C2 C2D2 D2D1 D1D2 D2D3 D3C3 C3C2 C2B2 B2A1 A1B6 B6B7 B7C7 C7C1 C1C2 C2C3 C3C4 C4C5"/>
    </vehicle>
    <vehicle id="9.0" depart="0.00">
        <route edges="D2D1 D1D2 D2C2 C2B2 B2A1 A1B1"/>
    </vehicle>
</routes>
